FoamFile
{
    version     2.0;
    format      ascii;
    class       dictionary;
    location    "constant";
    object      LookupTableInjection;
}
pressure    1.30999; // pressure (bar),   19.00000 (psi)
kFactor  161.99680; // kFactor (lpm/bar^0.5),   11.20000 (gpm/psi^0.5)
radius    1.00000; // radius (m),   39.37008 (in)
nAzi    72; // azimuthal angles
nEle    19; // elevation angles
