/*--------------------------------*- C++ -*----------------------------------*\
| =========                 |                                                 |
| \\      /  F ield         | OpenFOAM: The Open Source CFD Toolbox           |
|  \\    /   O peration     | Version:  2.2.x                                   |
|   \\  /    A nd           | Web:      www.OpenFOAM.org                      |
|    \\/     M anipulation  |                                                 |
\*---------------------------------------------------------------------------*/

FoamFile
{
    version     2.0;
    format      ascii;
    class       volScalarField;
    location    "0";
    object      alphaSgs;
}

// * * * * * * * * * * * * * * * * * * * * * * * * * * * * * * * * * * * * * //


dimensions      [1 -1 -1 0 0 0 0];

internalField   uniform 0;

boundaryField
{
    top      
    {
        type            zeroGradient;
    }
    ground           
    {
        type            fixedValue;
        value		    uniform 0;
    }
    "(side.*)"
    {
        type            zeroGradient;
    }
    burner          
    {
        type            zeroGradient;
    }
    region0_to_filmRegion_coupledWall
    {
        type            fixedValue;
        value		    uniform 0;
    }

}


// ************************************************************************* //
