/*--------------------------------*- C++ -*----------------------------------*\
| =========                 |                                                 |
| \\      /  F ield         | OpenFOAM: The Open Source CFD Toolbox           |
|  \\    /   O peration     | Version:  1.6                                   |
|   \\  /    A nd           | Web:      http://www.OpenFOAM.org               |
|    \\/     M anipulation  |                                                 |
\*---------------------------------------------------------------------------*/
FoamFile
{
    version     2.0;
    format      ascii;
    class       volScalarField;
    object      IDefault;
}
// * * * * * * * * * * * * * * * * * * * * * * * * * * * * * * * * * * * * * //

dimensions      [1 0 -3 0 0 0 0];

internalField   uniform 0;

boundaryField
{
    top
    {
        type            greyDiffusiveRadiation;
        T               T;
        emissivityMode  lookup; //solidThermo
        emissivity      uniform 1.0;
        value           uniform 0;
    }
    ground           
    {
        type            greyDiffusiveRadiation;
        T               T;
        emissivityMode  lookup; //solidThermo
        emissivity      uniform 1.0;
        value           uniform 0;
    }
    "(side.*)"
    {
        type            greyDiffusiveRadiation;
        T               T;
        emissivityMode  lookup; //solidThermo
        emissivity      uniform 1.0;
        value           uniform 0;
    }
    burner          
    {
        type            greyDiffusiveRadiation;
        T               T;
        emissivityMode  lookup; //solidThermo
        emissivity      uniform 1.0;
        value           uniform 0;
    }
    region0_to_filmRegion_coupledWall
    {
        type            greyDiffusiveRadiation;
        T               T;
        emissivityMode  solidRadiation; //lookup; 
        emissivity      uniform 1.0;
        value           uniform 0;
    }
}

// ************************************************************************* //

