/*--------------------------------*- C++ -*----------------------------------*\
| =========                 |                                                 |
| \\      /  F ield         | OpenFOAM: The Open Source CFD Toolbox           |
|  \\    /   O peration     | Version:  2.2.x                                 |
|   \\  /    A nd           | Web:      www.OpenFOAM.org                      |
|    \\/     M anipulation  |                                                 |
\*---------------------------------------------------------------------------*/

FoamFile
{
    version     2.0;
    format      ascii;
    class       volScalarField;
    location    "0";
    object      k;
}

// * * * * * * * * * * * * * * * * * * * * * * * * * * * * * * * * * * * * * //


dimensions      [0 2 -2 0 0 0 0];

internalField   uniform 1e-5;

boundaryField
{
    top      
    {
        type            inletOutlet;
        inletValue      $internalField;
        value           $internalField;
    }

    ground           
    {
        type            zeroGradient;
    }

    "(side.*)"          
    {
        type            inletOutlet;
        inletValue      $internalField;
        value           $internalField;
    }

    burner          
    {
        type            fixedValue;
        value           $internalField;
    }
    region0_to_filmRegion_coupledWall
    {
        type            fixedValue;
        value           $internalField;
    }
/*
    region0_to_panelRegion_panel_top
    {
        type            zeroGradient;
    }
*/
}


// ************************************************************************* //
