/*--------------------------------*- C++ -*----------------------------------*\
| =========                 |                                                 |
| \\      /  F ield         | OpenFOAM: The Open Source CFD Toolbox           |
|  \\    /   O peration     | Version:  2.2.x                                 |
|   \\  /    A nd           | Web:      www.OpenFOAM.org                      |
|    \\/     M anipulation  |                                                 |
\*---------------------------------------------------------------------------*/

FoamFile
{
    version     2.0;
    format      ascii;
    class       volScalarField;
    location    "0";
    object      muSgs;
}

// * * * * * * * * * * * * * * * * * * * * * * * * * * * * * * * * * * * * * //


dimensions      [1 -1 -1 0 0 0 0];

internalField   uniform 1e-8;

boundaryField
{
    top      
    {
        type            fixedValue;
        value		    uniform 1e-8;
    }
    ground           
    {
        type            zeroGradient;
    }
    "(side.*)"
    {
        type            zeroGradient;
    }
    burner          
    {
        type            zeroGradient;
    }
    region0_to_filmRegion_coupledWall
    {
        type            fixedValue;
        value		    uniform 1e-8;
    }
/*
    region0_to_panelRegion_panel_top
    {
        //type            zeroGradient;
        //type            muSgsWallFunction;
        type            fixedValue;
        value		    uniform 0;
    }
*/
}


// ************************************************************************* //

