/*--------------------------------*- C++ -*----------------------------------*\
| =========                 |                                                 |
| \\      /  F ield         | OpenFOAM: The Open Source CFD Toolbox           |
|  \\    /   O peration     | Version:  2.2.x                                 |
|   \\  /    A nd           | Web:      www.OpenFOAM.org                      |
|    \\/     M anipulation  |                                                 |
\*---------------------------------------------------------------------------*/
FoamFile
{
    version     2.0;
    format      ascii;
    class       volScalarField;
    location    "0";
    object      p;
}
// * * * * * * * * * * * * * * * * * * * * * * * * * * * * * * * * * * * * * //

dimensions      [1 -1 -2 0 0 0 0];

internalField   uniform 100000;

boundaryField
{
    top
    {
        type            zeroGradient;
    }
    ground
    {
        type            zeroGradient;
    }
    "(side.*)"
    {
        //type            symmetryPlane;
        type            zeroGradient;
    }
    burner
    {
        type            calculated;
        value           $internalField;
    }
    "(region0_to.*)"
    {
        type            zeroGradient;
    }
}


// ************************************************************************* //
