/*--------------------------------*- C++ -*----------------------------------*\
| =========                 |                                                 |
| \\      /  F ield         | OpenFOAM: The Open Source CFD Toolbox           |
|  \\    /   O peration     | Version:  2.2.x                                 |
|   \\  /    A nd           | Web:      www.OpenFOAM.org                      |
|    \\/     M anipulation  |                                                 |
\*---------------------------------------------------------------------------*/
FoamFile
{
    version     2.0;
    format      ascii;
    class       volScalarField;
    location    "0";
    object      T;
}
// * * * * * * * * * * * * * * * * * * * * * * * * * * * * * * * * * * * * * //

dimensions      [0 0 0 1 0 0 0];

internalField   uniform 298.15;

boundaryField
{
    top
    {
	    type		inletOutlet;
	    inletValue	$internalField;
	    value		$internalField;
    }
    ground
    {
        type            zeroGradient;
    }
    "(side.*)"
    {
	    type		inletOutlet;
	    inletValue	$internalField;
	    value		$internalField;
    }

    burner          
    {
        type                fixedValue;
        value               $internalField;
    }

    "(region0_to.*)"
    {
        type            fixedValue;
        value           $internalField;
//        type          compressible::turbulentTemperatureRadiationCoupledMixedST;
//        neighbourFieldName T;
//        K               none;
//        kappa           fluidThermo;
//        kappaName       none;
//        emissivityMode  solidRadiation;
//        neighbourFieldRadiativeName none;
//        fieldRadiativeName Qin; //Qr;
//        value           $internalField;
    }
}


// ************************************************************************* //
