/*--------------------------------*- C++ -*----------------------------------*\
| =========                 |                                                 |
| \\      /  F ield         | OpenFOAM: The Open Source CFD Toolbox           |
|  \\    /   O peration     | Version:  2.2.x                                 |
|   \\  /    A nd           | Web:      www.OpenFOAM.org                      |
|    \\/     M anipulation  |                                                 |
\*---------------------------------------------------------------------------*/
FoamFile
{
    version     2.0;
    format      ascii;
    class       dictionary;
    location    "constant";
    object      scalarListList;
}
// * * * * * * * * * * * * * * * * * * * * * * * * * * * * * * * * * * * * * //
// (x y z) (u v w) d rho mDot T cp (Y0..Y2) (Yg0..YgN) (Yl0..YlN) (Ys0..YsN)
(
    (5.0 7.1 5.0) (0 -5 0) 0.01 1000 0.001 400 4200 (1)
);


// ************************************************************************* //
