FoamFile
{
    version     2.0;
    format      ascii;
    class       dictionary;
    location    "constant";
    object      LookupTableInjection;
}
avgFlux
List<scalar>
32760
(
2.281e+01 // azi =       0 ele =         0 
2.355e+01 // azi =       0 ele =         1 
2.451e+01 // azi =       0 ele =         2 
2.578e+01 // azi =       0 ele =         3 
2.756e+01 // azi =       0 ele =         4 
3.026e+01 // azi =       0 ele =         5 
2.725e+01 // azi =       0 ele =         6 
2.485e+01 // azi =       0 ele =         7 
2.287e+01 // azi =       0 ele =         8 
2.119e+01 // azi =       0 ele =         9 
1.931e+01 // azi =       0 ele =        10 
1.804e+01 // azi =       0 ele =        11 
1.694e+01 // azi =       0 ele =        12 
1.598e+01 // azi =       0 ele =        13 
1.483e+01 // azi =       0 ele =        14 
1.447e+01 // azi =       0 ele =        15 
1.440e+01 // azi =       0 ele =        16 
1.399e+01 // azi =       0 ele =        17 
1.340e+01 // azi =       0 ele =        18 
1.267e+01 // azi =       0 ele =        19 
1.184e+01 // azi =       0 ele =        20 
1.091e+01 // azi =       0 ele =        21 
9.881e+00 // azi =       0 ele =        22 
8.715e+00 // azi =       0 ele =        23 
7.356e+00 // azi =       0 ele =        24 
5.676e+00 // azi =       0 ele =        25 
6.036e+00 // azi =       0 ele =        26 
6.153e+00 // azi =       0 ele =        27 
6.136e+00 // azi =       0 ele =        28 
5.954e+00 // azi =       0 ele =        29 
5.842e+00 // azi =       0 ele =        30 
5.601e+00 // azi =       0 ele =        31 
5.310e+00 // azi =       0 ele =        32 
4.968e+00 // azi =       0 ele =        33 
3.667e+00 // azi =       0 ele =        34 
3.573e+00 // azi =       0 ele =        35 
3.491e+00 // azi =       0 ele =        36 
3.537e+00 // azi =       0 ele =        37 
3.544e+00 // azi =       0 ele =        38 
3.529e+00 // azi =       0 ele =        39 
3.501e+00 // azi =       0 ele =        40 
4.912e+00 // azi =       0 ele =        41 
4.988e+00 // azi =       0 ele =        42 
5.013e+00 // azi =       0 ele =        43 
4.984e+00 // azi =       0 ele =        44 
4.463e+00 // azi =       0 ele =        45 
4.346e+00 // azi =       0 ele =        46 
4.155e+00 // azi =       0 ele =        47 
5.884e+00 // azi =       0 ele =        48 
4.681e+00 // azi =       0 ele =        49 
2.828e+00 // azi =       0 ele =        50 
4.834e+00 // azi =       0 ele =        51 
6.424e+00 // azi =       0 ele =        52 
7.766e+00 // azi =       0 ele =        53 
1.456e+01 // azi =       0 ele =        54 
1.646e+01 // azi =       0 ele =        55 
1.816e+01 // azi =       0 ele =        56 
1.970e+01 // azi =       0 ele =        57 
2.112e+01 // azi =       0 ele =        58 
2.244e+01 // azi =       0 ele =        59 
2.369e+01 // azi =       0 ele =        60 
2.485e+01 // azi =       0 ele =        61 
2.594e+01 // azi =       0 ele =        62 
2.841e+01 // azi =       0 ele =        63 
2.910e+01 // azi =       0 ele =        64 
2.965e+01 // azi =       0 ele =        65 
3.006e+01 // azi =       0 ele =        66 
3.028e+01 // azi =       0 ele =        67 
3.029e+01 // azi =       0 ele =        68 
3.048e+01 // azi =       0 ele =        69 
3.150e+01 // azi =       0 ele =        70 
4.359e+01 // azi =       0 ele =        71 
4.639e+01 // azi =       0 ele =        72 
4.892e+01 // azi =       0 ele =        73 
5.133e+01 // azi =       0 ele =        74 
5.374e+01 // azi =       0 ele =        75 
5.624e+01 // azi =       0 ele =        76 
5.890e+01 // azi =       0 ele =        77 
6.178e+01 // azi =       0 ele =        78 
6.494e+01 // azi =       0 ele =        79 
6.843e+01 // azi =       0 ele =        80 
7.231e+01 // azi =       0 ele =        81 
7.665e+01 // azi =       0 ele =        82 
8.153e+01 // azi =       0 ele =        83 
8.705e+01 // azi =       0 ele =        84 
9.333e+01 // azi =       0 ele =        85 
1.005e+02 // azi =       0 ele =        86 
1.088e+02 // azi =       0 ele =        87 
1.185e+02 // azi =       0 ele =        88 
1.300e+02 // azi =       0 ele =        89 
1.437e+02 // azi =       0 ele =        90 
2.270e+01 // azi =       1 ele =         0 
2.340e+01 // azi =       1 ele =         1 
2.428e+01 // azi =       1 ele =         2 
2.538e+01 // azi =       1 ele =         3 
2.667e+01 // azi =       1 ele =         4 
2.742e+01 // azi =       1 ele =         5 
2.629e+01 // azi =       1 ele =         6 
2.442e+01 // azi =       1 ele =         7 
2.265e+01 // azi =       1 ele =         8 
2.108e+01 // azi =       1 ele =         9 
1.924e+01 // azi =       1 ele =        10 
1.802e+01 // azi =       1 ele =        11 
1.696e+01 // azi =       1 ele =        12 
1.606e+01 // azi =       1 ele =        13 
1.534e+01 // azi =       1 ele =        14 
1.460e+01 // azi =       1 ele =        15 
1.437e+01 // azi =       1 ele =        16 
1.397e+01 // azi =       1 ele =        17 
1.338e+01 // azi =       1 ele =        18 
1.267e+01 // azi =       1 ele =        19 
1.186e+01 // azi =       1 ele =        20 
1.096e+01 // azi =       1 ele =        21 
9.972e+00 // azi =       1 ele =        22 
8.899e+00 // azi =       1 ele =        23 
7.794e+00 // azi =       1 ele =        24 
6.075e+00 // azi =       1 ele =        25 
6.121e+00 // azi =       1 ele =        26 
6.172e+00 // azi =       1 ele =        27 
6.135e+00 // azi =       1 ele =        28 
5.945e+00 // azi =       1 ele =        29 
5.761e+00 // azi =       1 ele =        30 
5.530e+00 // azi =       1 ele =        31 
5.326e+00 // azi =       1 ele =        32 
4.997e+00 // azi =       1 ele =        33 
3.670e+00 // azi =       1 ele =        34 
3.587e+00 // azi =       1 ele =        35 
3.541e+00 // azi =       1 ele =        36 
3.543e+00 // azi =       1 ele =        37 
3.541e+00 // azi =       1 ele =        38 
3.523e+00 // azi =       1 ele =        39 
3.494e+00 // azi =       1 ele =        40 
4.958e+00 // azi =       1 ele =        41 
5.037e+00 // azi =       1 ele =        42 
5.065e+00 // azi =       1 ele =        43 
4.568e+00 // azi =       1 ele =        44 
4.514e+00 // azi =       1 ele =        45 
4.402e+00 // azi =       1 ele =        46 
4.217e+00 // azi =       1 ele =        47 
6.029e+00 // azi =       1 ele =        48 
4.994e+00 // azi =       1 ele =        49 
4.160e+00 // azi =       1 ele =        50 
5.160e+00 // azi =       1 ele =        51 
6.577e+00 // azi =       1 ele =        52 
7.862e+00 // azi =       1 ele =        53 
1.469e+01 // azi =       1 ele =        54 
1.657e+01 // azi =       1 ele =        55 
1.825e+01 // azi =       1 ele =        56 
1.978e+01 // azi =       1 ele =        57 
2.120e+01 // azi =       1 ele =        58 
2.253e+01 // azi =       1 ele =        59 
2.378e+01 // azi =       1 ele =        60 
2.495e+01 // azi =       1 ele =        61 
2.605e+01 // azi =       1 ele =        62 
2.855e+01 // azi =       1 ele =        63 
2.923e+01 // azi =       1 ele =        64 
2.977e+01 // azi =       1 ele =        65 
3.016e+01 // azi =       1 ele =        66 
3.035e+01 // azi =       1 ele =        67 
3.036e+01 // azi =       1 ele =        68 
3.055e+01 // azi =       1 ele =        69 
3.159e+01 // azi =       1 ele =        70 
4.362e+01 // azi =       1 ele =        71 
4.636e+01 // azi =       1 ele =        72 
4.884e+01 // azi =       1 ele =        73 
5.122e+01 // azi =       1 ele =        74 
5.362e+01 // azi =       1 ele =        75 
5.611e+01 // azi =       1 ele =        76 
5.876e+01 // azi =       1 ele =        77 
6.165e+01 // azi =       1 ele =        78 
6.481e+01 // azi =       1 ele =        79 
6.830e+01 // azi =       1 ele =        80 
7.219e+01 // azi =       1 ele =        81 
7.655e+01 // azi =       1 ele =        82 
8.144e+01 // azi =       1 ele =        83 
8.698e+01 // azi =       1 ele =        84 
9.328e+01 // azi =       1 ele =        85 
1.005e+02 // azi =       1 ele =        86 
1.088e+02 // azi =       1 ele =        87 
1.185e+02 // azi =       1 ele =        88 
1.300e+02 // azi =       1 ele =        89 
1.437e+02 // azi =       1 ele =        90 
2.245e+01 // azi =       2 ele =         0 
2.305e+01 // azi =       2 ele =         1 
2.375e+01 // azi =       2 ele =         2 
2.451e+01 // azi =       2 ele =         3 
2.518e+01 // azi =       2 ele =         4 
2.538e+01 // azi =       2 ele =         5 
2.473e+01 // azi =       2 ele =         6 
2.351e+01 // azi =       2 ele =         7 
2.213e+01 // azi =       2 ele =         8 
2.080e+01 // azi =       2 ele =         9 
1.909e+01 // azi =       2 ele =        10 
1.799e+01 // azi =       2 ele =        11 
1.703e+01 // azi =       2 ele =        12 
1.624e+01 // azi =       2 ele =        13 
1.562e+01 // azi =       2 ele =        14 
1.522e+01 // azi =       2 ele =        15 
1.434e+01 // azi =       2 ele =        16 
1.391e+01 // azi =       2 ele =        17 
1.334e+01 // azi =       2 ele =        18 
1.267e+01 // azi =       2 ele =        19 
1.191e+01 // azi =       2 ele =        20 
1.108e+01 // azi =       2 ele =        21 
1.020e+01 // azi =       2 ele =        22 
9.317e+00 // azi =       2 ele =        23 
8.529e+00 // azi =       2 ele =        24 
6.332e+00 // azi =       2 ele =        25 
6.261e+00 // azi =       2 ele =        26 
6.224e+00 // azi =       2 ele =        27 
6.150e+00 // azi =       2 ele =        28 
5.944e+00 // azi =       2 ele =        29 
5.760e+00 // azi =       2 ele =        30 
5.539e+00 // azi =       2 ele =        31 
5.285e+00 // azi =       2 ele =        32 
3.772e+00 // azi =       2 ele =        33 
3.681e+00 // azi =       2 ele =        34 
3.612e+00 // azi =       2 ele =        35 
3.571e+00 // azi =       2 ele =        36 
3.555e+00 // azi =       2 ele =        37 
3.540e+00 // azi =       2 ele =        38 
3.517e+00 // azi =       2 ele =        39 
3.486e+00 // azi =       2 ele =        40 
3.449e+00 // azi =       2 ele =        41 
5.103e+00 // azi =       2 ele =        42 
4.627e+00 // azi =       2 ele =        43 
4.627e+00 // azi =       2 ele =        44 
4.583e+00 // azi =       2 ele =        45 
4.484e+00 // azi =       2 ele =        46 
4.321e+00 // azi =       2 ele =        47 
4.088e+00 // azi =       2 ele =        48 
5.636e+00 // azi =       2 ele =        49 
5.247e+00 // azi =       2 ele =        50 
5.835e+00 // azi =       2 ele =        51 
6.935e+00 // azi =       2 ele =        52 
8.077e+00 // azi =       2 ele =        53 
1.497e+01 // azi =       2 ele =        54 
1.676e+01 // azi =       2 ele =        55 
1.840e+01 // azi =       2 ele =        56 
1.991e+01 // azi =       2 ele =        57 
2.131e+01 // azi =       2 ele =        58 
2.264e+01 // azi =       2 ele =        59 
2.389e+01 // azi =       2 ele =        60 
2.507e+01 // azi =       2 ele =        61 
2.617e+01 // azi =       2 ele =        62 
2.869e+01 // azi =       2 ele =        63 
2.937e+01 // azi =       2 ele =        64 
2.990e+01 // azi =       2 ele =        65 
3.027e+01 // azi =       2 ele =        66 
3.044e+01 // azi =       2 ele =        67 
3.048e+01 // azi =       2 ele =        68 
3.067e+01 // azi =       2 ele =        69 
3.171e+01 // azi =       2 ele =        70 
3.197e+01 // azi =       2 ele =        71 
4.639e+01 // azi =       2 ele =        72 
4.880e+01 // azi =       2 ele =        73 
5.114e+01 // azi =       2 ele =        74 
5.351e+01 // azi =       2 ele =        75 
5.598e+01 // azi =       2 ele =        76 
5.863e+01 // azi =       2 ele =        77 
6.151e+01 // azi =       2 ele =        78 
6.468e+01 // azi =       2 ele =        79 
6.819e+01 // azi =       2 ele =        80 
7.209e+01 // azi =       2 ele =        81 
7.646e+01 // azi =       2 ele =        82 
8.137e+01 // azi =       2 ele =        83 
8.692e+01 // azi =       2 ele =        84 
9.323e+01 // azi =       2 ele =        85 
1.005e+02 // azi =       2 ele =        86 
1.088e+02 // azi =       2 ele =        87 
1.185e+02 // azi =       2 ele =        88 
1.300e+02 // azi =       2 ele =        89 
1.437e+02 // azi =       2 ele =        90 
2.288e+01 // azi =       3 ele =         0 
2.257e+01 // azi =       3 ele =         1 
2.307e+01 // azi =       3 ele =         2 
2.354e+01 // azi =       3 ele =         3 
2.387e+01 // azi =       3 ele =         4 
2.385e+01 // azi =       3 ele =         5 
2.339e+01 // azi =       3 ele =         6 
2.254e+01 // azi =       3 ele =         7 
2.151e+01 // azi =       3 ele =         8 
2.044e+01 // azi =       3 ele =         9 
1.887e+01 // azi =       3 ele =        10 
1.792e+01 // azi =       3 ele =        11 
1.708e+01 // azi =       3 ele =        12 
1.638e+01 // azi =       3 ele =        13 
1.583e+01 // azi =       3 ele =        14 
1.540e+01 // azi =       3 ele =        15 
1.506e+01 // azi =       3 ele =        16 
1.385e+01 // azi =       3 ele =        17 
1.331e+01 // azi =       3 ele =        18 
1.268e+01 // azi =       3 ele =        19 
1.199e+01 // azi =       3 ele =        20 
1.125e+01 // azi =       3 ele =        21 
1.049e+01 // azi =       3 ele =        22 
9.773e+00 // azi =       3 ele =        23 
6.698e+00 // azi =       3 ele =        24 
6.495e+00 // azi =       3 ele =        25 
6.370e+00 // azi =       3 ele =        26 
6.276e+00 // azi =       3 ele =        27 
6.171e+00 // azi =       3 ele =        28 
5.948e+00 // azi =       3 ele =        29 
5.766e+00 // azi =       3 ele =        30 
5.557e+00 // azi =       3 ele =        31 
5.327e+00 // azi =       3 ele =        32 
3.770e+00 // azi =       3 ele =        33 
3.689e+00 // azi =       3 ele =        34 
3.628e+00 // azi =       3 ele =        35 
3.587e+00 // azi =       3 ele =        36 
3.560e+00 // azi =       3 ele =        37 
3.536e+00 // azi =       3 ele =        38 
3.509e+00 // azi =       3 ele =        39 
3.476e+00 // azi =       3 ele =        40 
3.440e+00 // azi =       3 ele =        41 
4.650e+00 // azi =       3 ele =        42 
4.693e+00 // azi =       3 ele =        43 
4.701e+00 // azi =       3 ele =        44 
4.669e+00 // azi =       3 ele =        45 
4.590e+00 // azi =       3 ele =        46 
4.458e+00 // azi =       3 ele =        47 
4.278e+00 // azi =       3 ele =        48 
6.328e+00 // azi =       3 ele =        49 
6.154e+00 // azi =       3 ele =        50 
6.566e+00 // azi =       3 ele =        51 
7.404e+00 // azi =       3 ele =        52 
8.379e+00 // azi =       3 ele =        53 
1.535e+01 // azi =       3 ele =        54 
1.703e+01 // azi =       3 ele =        55 
1.860e+01 // azi =       3 ele =        56 
2.006e+01 // azi =       3 ele =        57 
2.145e+01 // azi =       3 ele =        58 
2.276e+01 // azi =       3 ele =        59 
2.401e+01 // azi =       3 ele =        60 
2.519e+01 // azi =       3 ele =        61 
2.630e+01 // azi =       3 ele =        62 
2.884e+01 // azi =       3 ele =        63 
2.951e+01 // azi =       3 ele =        64 
3.004e+01 // azi =       3 ele =        65 
3.040e+01 // azi =       3 ele =        66 
3.057e+01 // azi =       3 ele =        67 
3.064e+01 // azi =       3 ele =        68 
3.083e+01 // azi =       3 ele =        69 
3.187e+01 // azi =       3 ele =        70 
3.210e+01 // azi =       3 ele =        71 
4.646e+01 // azi =       3 ele =        72 
4.879e+01 // azi =       3 ele =        73 
5.108e+01 // azi =       3 ele =        74 
5.341e+01 // azi =       3 ele =        75 
5.587e+01 // azi =       3 ele =        76 
5.851e+01 // azi =       3 ele =        77 
6.139e+01 // azi =       3 ele =        78 
6.456e+01 // azi =       3 ele =        79 
6.808e+01 // azi =       3 ele =        80 
7.199e+01 // azi =       3 ele =        81 
7.637e+01 // azi =       3 ele =        82 
8.129e+01 // azi =       3 ele =        83 
8.686e+01 // azi =       3 ele =        84 
9.318e+01 // azi =       3 ele =        85 
1.004e+02 // azi =       3 ele =        86 
1.088e+02 // azi =       3 ele =        87 
1.185e+02 // azi =       3 ele =        88 
1.300e+02 // azi =       3 ele =        89 
1.437e+02 // azi =       3 ele =        90 
2.246e+01 // azi =       4 ele =         0 
2.279e+01 // azi =       4 ele =         1 
2.311e+01 // azi =       4 ele =         2 
2.338e+01 // azi =       4 ele =         3 
2.279e+01 // azi =       4 ele =         4 
2.269e+01 // azi =       4 ele =         5 
2.231e+01 // azi =       4 ele =         6 
2.169e+01 // azi =       4 ele =         7 
2.091e+01 // azi =       4 ele =         8 
2.006e+01 // azi =       4 ele =         9 
1.861e+01 // azi =       4 ele =        10 
1.780e+01 // azi =       4 ele =        11 
1.708e+01 // azi =       4 ele =        12 
1.646e+01 // azi =       4 ele =        13 
1.595e+01 // azi =       4 ele =        14 
1.551e+01 // azi =       4 ele =        15 
1.513e+01 // azi =       4 ele =        16 
1.474e+01 // azi =       4 ele =        17 
1.328e+01 // azi =       4 ele =        18 
1.271e+01 // azi =       4 ele =        19 
1.208e+01 // azi =       4 ele =        20 
1.143e+01 // azi =       4 ele =        21 
1.078e+01 // azi =       4 ele =        22 
7.058e+00 // azi =       4 ele =        23 
6.791e+00 // azi =       4 ele =        24 
6.590e+00 // azi =       4 ele =        25 
6.440e+00 // azi =       4 ele =        26 
6.314e+00 // azi =       4 ele =        27 
6.188e+00 // azi =       4 ele =        28 
6.049e+00 // azi =       4 ele =        29 
5.773e+00 // azi =       4 ele =        30 
5.578e+00 // azi =       4 ele =        31 
5.372e+00 // azi =       4 ele =        32 
3.762e+00 // azi =       4 ele =        33 
3.689e+00 // azi =       4 ele =        34 
3.633e+00 // azi =       4 ele =        35 
3.591e+00 // azi =       4 ele =        36 
3.558e+00 // azi =       4 ele =        37 
3.529e+00 // azi =       4 ele =        38 
3.498e+00 // azi =       4 ele =        39 
3.465e+00 // azi =       4 ele =        40 
4.650e+00 // azi =       4 ele =        41 
4.721e+00 // azi =       4 ele =        42 
4.769e+00 // azi =       4 ele =        43 
4.788e+00 // azi =       4 ele =        44 
4.772e+00 // azi =       4 ele =        45 
4.716e+00 // azi =       4 ele =        46 
4.618e+00 // azi =       4 ele =        47 
4.490e+00 // azi =       4 ele =        48 
4.368e+00 // azi =       4 ele =        49 
6.924e+00 // azi =       4 ele =        50 
7.253e+00 // azi =       4 ele =        51 
7.909e+00 // azi =       4 ele =        52 
8.731e+00 // azi =       4 ele =        53 
1.580e+01 // azi =       4 ele =        54 
1.735e+01 // azi =       4 ele =        55 
1.884e+01 // azi =       4 ele =        56 
2.025e+01 // azi =       4 ele =        57 
2.160e+01 // azi =       4 ele =        58 
2.290e+01 // azi =       4 ele =        59 
2.414e+01 // azi =       4 ele =        60 
2.532e+01 // azi =       4 ele =        61 
2.643e+01 // azi =       4 ele =        62 
2.901e+01 // azi =       4 ele =        63 
2.968e+01 // azi =       4 ele =        64 
3.020e+01 // azi =       4 ele =        65 
3.056e+01 // azi =       4 ele =        66 
3.074e+01 // azi =       4 ele =        67 
3.084e+01 // azi =       4 ele =        68 
3.178e+01 // azi =       4 ele =        69 
3.206e+01 // azi =       4 ele =        70 
3.224e+01 // azi =       4 ele =        71 
3.229e+01 // azi =       4 ele =        72 
4.881e+01 // azi =       4 ele =        73 
5.103e+01 // azi =       4 ele =        74 
5.333e+01 // azi =       4 ele =        75 
5.576e+01 // azi =       4 ele =        76 
5.840e+01 // azi =       4 ele =        77 
6.128e+01 // azi =       4 ele =        78 
6.445e+01 // azi =       4 ele =        79 
6.797e+01 // azi =       4 ele =        80 
7.189e+01 // azi =       4 ele =        81 
7.628e+01 // azi =       4 ele =        82 
8.122e+01 // azi =       4 ele =        83 
8.680e+01 // azi =       4 ele =        84 
9.314e+01 // azi =       4 ele =        85 
1.004e+02 // azi =       4 ele =        86 
1.088e+02 // azi =       4 ele =        87 
1.185e+02 // azi =       4 ele =        88 
1.300e+02 // azi =       4 ele =        89 
1.437e+02 // azi =       4 ele =        90 
2.202e+01 // azi =       5 ele =         0 
2.225e+01 // azi =       5 ele =         1 
2.246e+01 // azi =       5 ele =         2 
2.262e+01 // azi =       5 ele =         3 
2.266e+01 // azi =       5 ele =         4 
2.257e+01 // azi =       5 ele =         5 
2.146e+01 // azi =       5 ele =         6 
2.098e+01 // azi =       5 ele =         7 
2.037e+01 // azi =       5 ele =         8 
1.970e+01 // azi =       5 ele =         9 
1.833e+01 // azi =       5 ele =        10 
1.765e+01 // azi =       5 ele =        11 
1.703e+01 // azi =       5 ele =        12 
1.648e+01 // azi =       5 ele =        13 
1.600e+01 // azi =       5 ele =        14 
1.557e+01 // azi =       5 ele =        15 
1.518e+01 // azi =       5 ele =        16 
1.479e+01 // azi =       5 ele =        17 
1.438e+01 // azi =       5 ele =        18 
1.274e+01 // azi =       5 ele =        19 
1.218e+01 // azi =       5 ele =        20 
1.161e+01 // azi =       5 ele =        21 
7.362e+00 // azi =       5 ele =        22 
7.072e+00 // azi =       5 ele =        23 
6.831e+00 // azi =       5 ele =        24 
6.635e+00 // azi =       5 ele =        25 
6.474e+00 // azi =       5 ele =        26 
6.334e+00 // azi =       5 ele =        27 
6.198e+00 // azi =       5 ele =        28 
6.057e+00 // azi =       5 ele =        29 
5.779e+00 // azi =       5 ele =        30 
5.597e+00 // azi =       5 ele =        31 
3.822e+00 // azi =       5 ele =        32 
3.746e+00 // azi =       5 ele =        33 
3.681e+00 // azi =       5 ele =        34 
3.627e+00 // azi =       5 ele =        35 
3.585e+00 // azi =       5 ele =        36 
3.549e+00 // azi =       5 ele =        37 
3.516e+00 // azi =       5 ele =        38 
3.484e+00 // azi =       5 ele =        39 
3.451e+00 // azi =       5 ele =        40 
4.728e+00 // azi =       5 ele =        41 
4.801e+00 // azi =       5 ele =        42 
4.856e+00 // azi =       5 ele =        43 
4.887e+00 // azi =       5 ele =        44 
4.889e+00 // azi =       5 ele =        45 
4.858e+00 // azi =       5 ele =        46 
4.795e+00 // azi =       5 ele =        47 
4.712e+00 // azi =       5 ele =        48 
4.639e+00 // azi =       5 ele =        49 
7.587e+00 // azi =       5 ele =        50 
7.873e+00 // azi =       5 ele =        51 
8.408e+00 // azi =       5 ele =        52 
1.491e+01 // azi =       5 ele =        53 
1.630e+01 // azi =       5 ele =        54 
1.771e+01 // azi =       5 ele =        55 
1.910e+01 // azi =       5 ele =        56 
2.046e+01 // azi =       5 ele =        57 
2.178e+01 // azi =       5 ele =        58 
2.305e+01 // azi =       5 ele =        59 
2.428e+01 // azi =       5 ele =        60 
2.546e+01 // azi =       5 ele =        61 
2.658e+01 // azi =       5 ele =        62 
2.919e+01 // azi =       5 ele =        63 
2.986e+01 // azi =       5 ele =        64 
3.038e+01 // azi =       5 ele =        65 
3.075e+01 // azi =       5 ele =        66 
3.096e+01 // azi =       5 ele =        67 
3.109e+01 // azi =       5 ele =        68 
3.206e+01 // azi =       5 ele =        69 
3.227e+01 // azi =       5 ele =        70 
3.240e+01 // azi =       5 ele =        71 
3.241e+01 // azi =       5 ele =        72 
4.884e+01 // azi =       5 ele =        73 
5.100e+01 // azi =       5 ele =        74 
5.326e+01 // azi =       5 ele =        75 
5.567e+01 // azi =       5 ele =        76 
5.829e+01 // azi =       5 ele =        77 
6.117e+01 // azi =       5 ele =        78 
6.434e+01 // azi =       5 ele =        79 
6.787e+01 // azi =       5 ele =        80 
7.180e+01 // azi =       5 ele =        81 
7.620e+01 // azi =       5 ele =        82 
8.115e+01 // azi =       5 ele =        83 
8.674e+01 // azi =       5 ele =        84 
9.309e+01 // azi =       5 ele =        85 
1.004e+02 // azi =       5 ele =        86 
1.087e+02 // azi =       5 ele =        87 
1.185e+02 // azi =       5 ele =        88 
1.300e+02 // azi =       5 ele =        89 
1.437e+02 // azi =       5 ele =        90 
2.158e+01 // azi =       6 ele =         0 
2.174e+01 // azi =       6 ele =         1 
2.187e+01 // azi =       6 ele =         2 
2.195e+01 // azi =       6 ele =         3 
2.194e+01 // azi =       6 ele =         4 
2.183e+01 // azi =       6 ele =         5 
2.161e+01 // azi =       6 ele =         6 
2.129e+01 // azi =       6 ele =         7 
1.990e+01 // azi =       6 ele =         8 
1.936e+01 // azi =       6 ele =         9 
1.803e+01 // azi =       6 ele =        10 
1.747e+01 // azi =       6 ele =        11 
1.693e+01 // azi =       6 ele =        12 
1.644e+01 // azi =       6 ele =        13 
1.599e+01 // azi =       6 ele =        14 
1.559e+01 // azi =       6 ele =        15 
1.520e+01 // azi =       6 ele =        16 
1.483e+01 // azi =       6 ele =        17 
1.444e+01 // azi =       6 ele =        18 
1.404e+01 // azi =       6 ele =        19 
1.215e+01 // azi =       6 ele =        20 
7.586e+00 // azi =       6 ele =        21 
7.301e+00 // azi =       6 ele =        22 
7.048e+00 // azi =       6 ele =        23 
6.828e+00 // azi =       6 ele =        24 
6.641e+00 // azi =       6 ele =        25 
6.480e+00 // azi =       6 ele =        26 
6.335e+00 // azi =       6 ele =        27 
6.197e+00 // azi =       6 ele =        28 
6.060e+00 // azi =       6 ele =        29 
3.924e+00 // azi =       6 ele =        30 
3.850e+00 // azi =       6 ele =        31 
3.782e+00 // azi =       6 ele =        32 
3.723e+00 // azi =       6 ele =        33 
3.663e+00 // azi =       6 ele =        34 
3.612e+00 // azi =       6 ele =        35 
3.570e+00 // azi =       6 ele =        36 
3.533e+00 // azi =       6 ele =        37 
3.500e+00 // azi =       6 ele =        38 
3.467e+00 // azi =       6 ele =        39 
4.727e+00 // azi =       6 ele =        40 
4.811e+00 // azi =       6 ele =        41 
4.888e+00 // azi =       6 ele =        42 
4.952e+00 // azi =       6 ele =        43 
4.996e+00 // azi =       6 ele =        44 
5.017e+00 // azi =       6 ele =        45 
5.012e+00 // azi =       6 ele =        46 
4.983e+00 // azi =       6 ele =        47 
4.939e+00 // azi =       6 ele =        48 
4.904e+00 // azi =       6 ele =        49 
8.167e+00 // azi =       6 ele =        50 
8.429e+00 // azi =       6 ele =        51 
8.881e+00 // azi =       6 ele =        52 
1.558e+01 // azi =       6 ele =        53 
1.680e+01 // azi =       6 ele =        54 
1.809e+01 // azi =       6 ele =        55 
1.939e+01 // azi =       6 ele =        56 
2.068e+01 // azi =       6 ele =        57 
2.196e+01 // azi =       6 ele =        58 
2.321e+01 // azi =       6 ele =        59 
2.444e+01 // azi =       6 ele =        60 
2.562e+01 // azi =       6 ele =        61 
2.674e+01 // azi =       6 ele =        62 
2.938e+01 // azi =       6 ele =        63 
3.006e+01 // azi =       6 ele =        64 
3.059e+01 // azi =       6 ele =        65 
3.098e+01 // azi =       6 ele =        66 
3.121e+01 // azi =       6 ele =        67 
3.137e+01 // azi =       6 ele =        68 
3.237e+01 // azi =       6 ele =        69 
3.251e+01 // azi =       6 ele =        70 
3.258e+01 // azi =       6 ele =        71 
3.254e+01 // azi =       6 ele =        72 
4.889e+01 // azi =       6 ele =        73 
5.098e+01 // azi =       6 ele =        74 
5.320e+01 // azi =       6 ele =        75 
5.558e+01 // azi =       6 ele =        76 
5.819e+01 // azi =       6 ele =        77 
6.106e+01 // azi =       6 ele =        78 
6.424e+01 // azi =       6 ele =        79 
6.777e+01 // azi =       6 ele =        80 
7.171e+01 // azi =       6 ele =        81 
7.613e+01 // azi =       6 ele =        82 
8.109e+01 // azi =       6 ele =        83 
8.669e+01 // azi =       6 ele =        84 
9.305e+01 // azi =       6 ele =        85 
1.003e+02 // azi =       6 ele =        86 
1.087e+02 // azi =       6 ele =        87 
1.185e+02 // azi =       6 ele =        88 
1.300e+02 // azi =       6 ele =        89 
1.437e+02 // azi =       6 ele =        90 
2.115e+01 // azi =       7 ele =         0 
2.126e+01 // azi =       7 ele =         1 
2.133e+01 // azi =       7 ele =         2 
2.136e+01 // azi =       7 ele =         3 
2.132e+01 // azi =       7 ele =         4 
2.121e+01 // azi =       7 ele =         5 
2.102e+01 // azi =       7 ele =         6 
2.076e+01 // azi =       7 ele =         7 
2.044e+01 // azi =       7 ele =         8 
2.008e+01 // azi =       7 ele =         9 
1.774e+01 // azi =       7 ele =        10 
1.726e+01 // azi =       7 ele =        11 
1.680e+01 // azi =       7 ele =        12 
1.636e+01 // azi =       7 ele =        13 
1.595e+01 // azi =       7 ele =        14 
1.557e+01 // azi =       7 ele =        15 
1.521e+01 // azi =       7 ele =        16 
1.485e+01 // azi =       7 ele =        17 
1.450e+01 // azi =       7 ele =        18 
1.413e+01 // azi =       7 ele =        19 
9.146e+00 // azi =       7 ele =        20 
7.459e+00 // azi =       7 ele =        21 
7.214e+00 // azi =       7 ele =        22 
6.991e+00 // azi =       7 ele =        23 
6.792e+00 // azi =       7 ele =        24 
6.616e+00 // azi =       7 ele =        25 
6.460e+00 // azi =       7 ele =        26 
6.318e+00 // azi =       7 ele =        27 
6.184e+00 // azi =       7 ele =        28 
3.917e+00 // azi =       7 ele =        29 
3.855e+00 // azi =       7 ele =        30 
3.793e+00 // azi =       7 ele =        31 
3.736e+00 // azi =       7 ele =        32 
3.685e+00 // azi =       7 ele =        33 
3.641e+00 // azi =       7 ele =        34 
3.589e+00 // azi =       7 ele =        35 
3.548e+00 // azi =       7 ele =        36 
3.511e+00 // azi =       7 ele =        37 
3.478e+00 // azi =       7 ele =        38 
3.446e+00 // azi =       7 ele =        39 