FoamFile
{
    version     2.0;
    format      ascii;
    class       dictionary;
    location    "constant";
    object      LookupTableInjection;
}
area
List<scalar>
32760
(
9.826e-06 // azi =       0 ele =         0 
1.965e-05 // azi =       0 ele =         1 
1.964e-05 // azi =       0 ele =         2 
1.963e-05 // azi =       0 ele =         3 
1.960e-05 // azi =       0 ele =         4 
1.958e-05 // azi =       0 ele =         5 
1.954e-05 // azi =       0 ele =         6 
1.951e-05 // azi =       0 ele =         7 
1.946e-05 // azi =       0 ele =         8 
1.941e-05 // azi =       0 ele =         9 
1.935e-05 // azi =       0 ele =        10 
1.929e-05 // azi =       0 ele =        11 
1.922e-05 // azi =       0 ele =        12 
1.915e-05 // azi =       0 ele =        13 
1.907e-05 // azi =       0 ele =        14 
1.898e-05 // azi =       0 ele =        15 
1.889e-05 // azi =       0 ele =        16 
1.879e-05 // azi =       0 ele =        17 
1.869e-05 // azi =       0 ele =        18 
1.858e-05 // azi =       0 ele =        19 
1.847e-05 // azi =       0 ele =        20 
1.835e-05 // azi =       0 ele =        21 
1.822e-05 // azi =       0 ele =        22 
1.809e-05 // azi =       0 ele =        23 
1.795e-05 // azi =       0 ele =        24 
1.781e-05 // azi =       0 ele =        25 
1.766e-05 // azi =       0 ele =        26 
1.751e-05 // azi =       0 ele =        27 
1.735e-05 // azi =       0 ele =        28 
1.719e-05 // azi =       0 ele =        29 
1.702e-05 // azi =       0 ele =        30 
1.685e-05 // azi =       0 ele =        31 
1.667e-05 // azi =       0 ele =        32 
1.648e-05 // azi =       0 ele =        33 
1.629e-05 // azi =       0 ele =        34 
1.610e-05 // azi =       0 ele =        35 
1.590e-05 // azi =       0 ele =        36 
1.570e-05 // azi =       0 ele =        37 
1.549e-05 // azi =       0 ele =        38 
1.527e-05 // azi =       0 ele =        39 
1.505e-05 // azi =       0 ele =        40 
1.483e-05 // azi =       0 ele =        41 
1.460e-05 // azi =       0 ele =        42 
1.437e-05 // azi =       0 ele =        43 
1.414e-05 // azi =       0 ele =        44 
1.390e-05 // azi =       0 ele =        45 
1.365e-05 // azi =       0 ele =        46 
1.340e-05 // azi =       0 ele =        47 
1.315e-05 // azi =       0 ele =        48 
1.289e-05 // azi =       0 ele =        49 
1.263e-05 // azi =       0 ele =        50 
1.237e-05 // azi =       0 ele =        51 
1.210e-05 // azi =       0 ele =        52 
1.183e-05 // azi =       0 ele =        53 
1.155e-05 // azi =       0 ele =        54 
1.127e-05 // azi =       0 ele =        55 
1.099e-05 // azi =       0 ele =        56 
1.070e-05 // azi =       0 ele =        57 
1.041e-05 // azi =       0 ele =        58 
1.012e-05 // azi =       0 ele =        59 
9.826e-06 // azi =       0 ele =        60 
9.528e-06 // azi =       0 ele =        61 
9.226e-06 // azi =       0 ele =        62 
8.922e-06 // azi =       0 ele =        63 
8.615e-06 // azi =       0 ele =        64 
8.305e-06 // azi =       0 ele =        65 
7.993e-06 // azi =       0 ele =        66 
7.679e-06 // azi =       0 ele =        67 
7.362e-06 // azi =       0 ele =        68 
7.043e-06 // azi =       0 ele =        69 
6.722e-06 // azi =       0 ele =        70 
6.398e-06 // azi =       0 ele =        71 
6.073e-06 // azi =       0 ele =        72 
5.746e-06 // azi =       0 ele =        73 
5.417e-06 // azi =       0 ele =        74 
5.086e-06 // azi =       0 ele =        75 
4.754e-06 // azi =       0 ele =        76 
4.421e-06 // azi =       0 ele =        77 
4.086e-06 // azi =       0 ele =        78 
3.750e-06 // azi =       0 ele =        79 
3.413e-06 // azi =       0 ele =        80 
3.074e-06 // azi =       0 ele =        81 
2.735e-06 // azi =       0 ele =        82 
2.395e-06 // azi =       0 ele =        83 
2.054e-06 // azi =       0 ele =        84 
1.713e-06 // azi =       0 ele =        85 
1.371e-06 // azi =       0 ele =        86 
1.029e-06 // azi =       0 ele =        87 
6.859e-07 // azi =       0 ele =        88 
3.430e-07 // azi =       0 ele =        89 
4.288e-08 // azi =       0 ele =        90 
9.826e-06 // azi =       1 ele =         0 
1.965e-05 // azi =       1 ele =         1 
1.964e-05 // azi =       1 ele =         2 
1.963e-05 // azi =       1 ele =         3 
1.960e-05 // azi =       1 ele =         4 
1.958e-05 // azi =       1 ele =         5 
1.954e-05 // azi =       1 ele =         6 
1.951e-05 // azi =       1 ele =         7 
1.946e-05 // azi =       1 ele =         8 
1.941e-05 // azi =       1 ele =         9 
1.935e-05 // azi =       1 ele =        10 
1.929e-05 // azi =       1 ele =        11 
1.922e-05 // azi =       1 ele =        12 
1.915e-05 // azi =       1 ele =        13 
1.907e-05 // azi =       1 ele =        14 
1.898e-05 // azi =       1 ele =        15 
1.889e-05 // azi =       1 ele =        16 
1.879e-05 // azi =       1 ele =        17 
1.869e-05 // azi =       1 ele =        18 
1.858e-05 // azi =       1 ele =        19 
1.847e-05 // azi =       1 ele =        20 
1.835e-05 // azi =       1 ele =        21 
1.822e-05 // azi =       1 ele =        22 
1.809e-05 // azi =       1 ele =        23 
1.795e-05 // azi =       1 ele =        24 
1.781e-05 // azi =       1 ele =        25 
1.766e-05 // azi =       1 ele =        26 
1.751e-05 // azi =       1 ele =        27 
1.735e-05 // azi =       1 ele =        28 
1.719e-05 // azi =       1 ele =        29 
1.702e-05 // azi =       1 ele =        30 
1.685e-05 // azi =       1 ele =        31 
1.667e-05 // azi =       1 ele =        32 
1.648e-05 // azi =       1 ele =        33 
1.629e-05 // azi =       1 ele =        34 
1.610e-05 // azi =       1 ele =        35 
1.590e-05 // azi =       1 ele =        36 
1.570e-05 // azi =       1 ele =        37 
1.549e-05 // azi =       1 ele =        38 
1.527e-05 // azi =       1 ele =        39 
1.505e-05 // azi =       1 ele =        40 
1.483e-05 // azi =       1 ele =        41 
1.460e-05 // azi =       1 ele =        42 
1.437e-05 // azi =       1 ele =        43 
1.414e-05 // azi =       1 ele =        44 
1.390e-05 // azi =       1 ele =        45 
1.365e-05 // azi =       1 ele =        46 
1.340e-05 // azi =       1 ele =        47 
1.315e-05 // azi =       1 ele =        48 
1.289e-05 // azi =       1 ele =        49 
1.263e-05 // azi =       1 ele =        50 
1.237e-05 // azi =       1 ele =        51 
1.210e-05 // azi =       1 ele =        52 
1.183e-05 // azi =       1 ele =        53 
1.155e-05 // azi =       1 ele =        54 
1.127e-05 // azi =       1 ele =        55 
1.099e-05 // azi =       1 ele =        56 
1.070e-05 // azi =       1 ele =        57 
1.041e-05 // azi =       1 ele =        58 
1.012e-05 // azi =       1 ele =        59 
9.826e-06 // azi =       1 ele =        60 
9.528e-06 // azi =       1 ele =        61 
9.226e-06 // azi =       1 ele =        62 
8.922e-06 // azi =       1 ele =        63 
8.615e-06 // azi =       1 ele =        64 
8.305e-06 // azi =       1 ele =        65 
7.993e-06 // azi =       1 ele =        66 
7.679e-06 // azi =       1 ele =        67 
7.362e-06 // azi =       1 ele =        68 
7.043e-06 // azi =       1 ele =        69 
6.722e-06 // azi =       1 ele =        70 
6.398e-06 // azi =       1 ele =        71 
6.073e-06 // azi =       1 ele =        72 
5.746e-06 // azi =       1 ele =        73 
5.417e-06 // azi =       1 ele =        74 
5.086e-06 // azi =       1 ele =        75 
4.754e-06 // azi =       1 ele =        76 
4.421e-06 // azi =       1 ele =        77 
4.086e-06 // azi =       1 ele =        78 
3.750e-06 // azi =       1 ele =        79 
3.413e-06 // azi =       1 ele =        80 
3.074e-06 // azi =       1 ele =        81 
2.735e-06 // azi =       1 ele =        82 
2.395e-06 // azi =       1 ele =        83 
2.054e-06 // azi =       1 ele =        84 
1.713e-06 // azi =       1 ele =        85 
1.371e-06 // azi =       1 ele =        86 
1.029e-06 // azi =       1 ele =        87 
6.859e-07 // azi =       1 ele =        88 
3.430e-07 // azi =       1 ele =        89 
4.288e-08 // azi =       1 ele =        90 
9.826e-06 // azi =       2 ele =         0 
1.965e-05 // azi =       2 ele =         1 
1.964e-05 // azi =       2 ele =         2 
1.963e-05 // azi =       2 ele =         3 
1.960e-05 // azi =       2 ele =         4 
1.958e-05 // azi =       2 ele =         5 
1.954e-05 // azi =       2 ele =         6 
1.951e-05 // azi =       2 ele =         7 
1.946e-05 // azi =       2 ele =         8 
1.941e-05 // azi =       2 ele =         9 
1.935e-05 // azi =       2 ele =        10 
1.929e-05 // azi =       2 ele =        11 
1.922e-05 // azi =       2 ele =        12 
1.915e-05 // azi =       2 ele =        13 
1.907e-05 // azi =       2 ele =        14 
1.898e-05 // azi =       2 ele =        15 
1.889e-05 // azi =       2 ele =        16 
1.879e-05 // azi =       2 ele =        17 
1.869e-05 // azi =       2 ele =        18 
1.858e-05 // azi =       2 ele =        19 
1.847e-05 // azi =       2 ele =        20 
1.835e-05 // azi =       2 ele =        21 
1.822e-05 // azi =       2 ele =        22 
1.809e-05 // azi =       2 ele =        23 
1.795e-05 // azi =       2 ele =        24 
1.781e-05 // azi =       2 ele =        25 
1.766e-05 // azi =       2 ele =        26 
1.751e-05 // azi =       2 ele =        27 
1.735e-05 // azi =       2 ele =        28 
1.719e-05 // azi =       2 ele =        29 
1.702e-05 // azi =       2 ele =        30 
1.685e-05 // azi =       2 ele =        31 
1.667e-05 // azi =       2 ele =        32 
1.648e-05 // azi =       2 ele =        33 
1.629e-05 // azi =       2 ele =        34 
1.610e-05 // azi =       2 ele =        35 
1.590e-05 // azi =       2 ele =        36 
1.570e-05 // azi =       2 ele =        37 
1.549e-05 // azi =       2 ele =        38 
1.527e-05 // azi =       2 ele =        39 
1.505e-05 // azi =       2 ele =        40 
1.483e-05 // azi =       2 ele =        41 
1.460e-05 // azi =       2 ele =        42 
1.437e-05 // azi =       2 ele =        43 
1.414e-05 // azi =       2 ele =        44 
1.390e-05 // azi =       2 ele =        45 
1.365e-05 // azi =       2 ele =        46 
1.340e-05 // azi =       2 ele =        47 
1.315e-05 // azi =       2 ele =        48 
1.289e-05 // azi =       2 ele =        49 
1.263e-05 // azi =       2 ele =        50 
1.237e-05 // azi =       2 ele =        51 
1.210e-05 // azi =       2 ele =        52 
1.183e-05 // azi =       2 ele =        53 
1.155e-05 // azi =       2 ele =        54 
1.127e-05 // azi =       2 ele =        55 
1.099e-05 // azi =       2 ele =        56 
1.070e-05 // azi =       2 ele =        57 
1.041e-05 // azi =       2 ele =        58 
1.012e-05 // azi =       2 ele =        59 
9.826e-06 // azi =       2 ele =        60 
9.528e-06 // azi =       2 ele =        61 
9.226e-06 // azi =       2 ele =        62 
8.922e-06 // azi =       2 ele =        63 
8.615e-06 // azi =       2 ele =        64 
8.305e-06 // azi =       2 ele =        65 
7.993e-06 // azi =       2 ele =        66 
7.679e-06 // azi =       2 ele =        67 
7.362e-06 // azi =       2 ele =        68 
7.043e-06 // azi =       2 ele =        69 
6.722e-06 // azi =       2 ele =        70 
6.398e-06 // azi =       2 ele =        71 
6.073e-06 // azi =       2 ele =        72 
5.746e-06 // azi =       2 ele =        73 
5.417e-06 // azi =       2 ele =        74 
5.086e-06 // azi =       2 ele =        75 
4.754e-06 // azi =       2 ele =        76 
4.421e-06 // azi =       2 ele =        77 
4.086e-06 // azi =       2 ele =        78 
3.750e-06 // azi =       2 ele =        79 
3.413e-06 // azi =       2 ele =        80 
3.074e-06 // azi =       2 ele =        81 
2.735e-06 // azi =       2 ele =        82 
2.395e-06 // azi =       2 ele =        83 
2.054e-06 // azi =       2 ele =        84 
1.713e-06 // azi =       2 ele =        85 
1.371e-06 // azi =       2 ele =        86 
1.029e-06 // azi =       2 ele =        87 
6.859e-07 // azi =       2 ele =        88 
3.430e-07 // azi =       2 ele =        89 
4.288e-08 // azi =       2 ele =        90 
9.826e-06 // azi =       3 ele =         0 
1.965e-05 // azi =       3 ele =         1 
1.964e-05 // azi =       3 ele =         2 
1.963e-05 // azi =       3 ele =         3 
1.960e-05 // azi =       3 ele =         4 
1.958e-05 // azi =       3 ele =         5 
1.954e-05 // azi =       3 ele =         6 
1.951e-05 // azi =       3 ele =         7 
1.946e-05 // azi =       3 ele =         8 
1.941e-05 // azi =       3 ele =         9 
1.935e-05 // azi =       3 ele =        10 
1.929e-05 // azi =       3 ele =        11 
1.922e-05 // azi =       3 ele =        12 
1.915e-05 // azi =       3 ele =        13 
1.907e-05 // azi =       3 ele =        14 
1.898e-05 // azi =       3 ele =        15 
1.889e-05 // azi =       3 ele =        16 
1.879e-05 // azi =       3 ele =        17 
1.869e-05 // azi =       3 ele =        18 
1.858e-05 // azi =       3 ele =        19 
1.847e-05 // azi =       3 ele =        20 
1.835e-05 // azi =       3 ele =        21 
1.822e-05 // azi =       3 ele =        22 
1.809e-05 // azi =       3 ele =        23 
1.795e-05 // azi =       3 ele =        24 
1.781e-05 // azi =       3 ele =        25 
1.766e-05 // azi =       3 ele =        26 
1.751e-05 // azi =       3 ele =        27 
1.735e-05 // azi =       3 ele =        28 
1.719e-05 // azi =       3 ele =        29 
1.702e-05 // azi =       3 ele =        30 
1.685e-05 // azi =       3 ele =        31 
1.667e-05 // azi =       3 ele =        32 
1.648e-05 // azi =       3 ele =        33 
1.629e-05 // azi =       3 ele =        34 
1.610e-05 // azi =       3 ele =        35 
1.590e-05 // azi =       3 ele =        36 
1.570e-05 // azi =       3 ele =        37 
1.549e-05 // azi =       3 ele =        38 
1.527e-05 // azi =       3 ele =        39 
1.505e-05 // azi =       3 ele =        40 
1.483e-05 // azi =       3 ele =        41 
1.460e-05 // azi =       3 ele =        42 
1.437e-05 // azi =       3 ele =        43 
1.414e-05 // azi =       3 ele =        44 
1.390e-05 // azi =       3 ele =        45 
1.365e-05 // azi =       3 ele =        46 
1.340e-05 // azi =       3 ele =        47 
1.315e-05 // azi =       3 ele =        48 
1.289e-05 // azi =       3 ele =        49 
1.263e-05 // azi =       3 ele =        50 
1.237e-05 // azi =       3 ele =        51 
1.210e-05 // azi =       3 ele =        52 
1.183e-05 // azi =       3 ele =        53 
1.155e-05 // azi =       3 ele =        54 
1.127e-05 // azi =       3 ele =        55 
1.099e-05 // azi =       3 ele =        56 
1.070e-05 // azi =       3 ele =        57 
1.041e-05 // azi =       3 ele =        58 
1.012e-05 // azi =       3 ele =        59 
9.826e-06 // azi =       3 ele =        60 
9.528e-06 // azi =       3 ele =        61 
9.226e-06 // azi =       3 ele =        62 
8.922e-06 // azi =       3 ele =        63 
8.615e-06 // azi =       3 ele =        64 
8.305e-06 // azi =       3 ele =        65 
7.993e-06 // azi =       3 ele =        66 
7.679e-06 // azi =       3 ele =        67 
7.362e-06 // azi =       3 ele =        68 
7.043e-06 // azi =       3 ele =        69 
6.722e-06 // azi =       3 ele =        70 
6.398e-06 // azi =       3 ele =        71 
6.073e-06 // azi =       3 ele =        72 
5.746e-06 // azi =       3 ele =        73 
5.417e-06 // azi =       3 ele =        74 
5.086e-06 // azi =       3 ele =        75 
4.754e-06 // azi =       3 ele =        76 
4.421e-06 // azi =       3 ele =        77 
4.086e-06 // azi =       3 ele =        78 
3.750e-06 // azi =       3 ele =        79 
3.413e-06 // azi =       3 ele =        80 
3.074e-06 // azi =       3 ele =        81 
2.735e-06 // azi =       3 ele =        82 
2.395e-06 // azi =       3 ele =        83 
2.054e-06 // azi =       3 ele =        84 
1.713e-06 // azi =       3 ele =        85 
1.371e-06 // azi =       3 ele =        86 
1.029e-06 // azi =       3 ele =        87 
6.859e-07 // azi =       3 ele =        88 
3.430e-07 // azi =       3 ele =        89 
4.288e-08 // azi =       3 ele =        90 
9.826e-06 // azi =       4 ele =         0 
1.965e-05 // azi =       4 ele =         1 
1.964e-05 // azi =       4 ele =         2 
1.963e-05 // azi =       4 ele =         3 
1.960e-05 // azi =       4 ele =         4 
1.958e-05 // azi =       4 ele =         5 
1.954e-05 // azi =       4 ele =         6 
1.951e-05 // azi =       4 ele =         7 
1.946e-05 // azi =       4 ele =         8 
1.941e-05 // azi =       4 ele =         9 
1.935e-05 // azi =       4 ele =        10 
1.929e-05 // azi =       4 ele =        11 
1.922e-05 // azi =       4 ele =        12 
1.915e-05 // azi =       4 ele =        13 
1.907e-05 // azi =       4 ele =        14 
1.898e-05 // azi =       4 ele =        15 
1.889e-05 // azi =       4 ele =        16 
1.879e-05 // azi =       4 ele =        17 
1.869e-05 // azi =       4 ele =        18 
1.858e-05 // azi =       4 ele =        19 
1.847e-05 // azi =       4 ele =        20 
1.835e-05 // azi =       4 ele =        21 
1.822e-05 // azi =       4 ele =        22 
1.809e-05 // azi =       4 ele =        23 
1.795e-05 // azi =       4 ele =        24 
1.781e-05 // azi =       4 ele =        25 
1.766e-05 // azi =       4 ele =        26 
1.751e-05 // azi =       4 ele =        27 
1.735e-05 // azi =       4 ele =        28 
1.719e-05 // azi =       4 ele =        29 
1.702e-05 // azi =       4 ele =        30 
1.685e-05 // azi =       4 ele =        31 
1.667e-05 // azi =       4 ele =        32 
1.648e-05 // azi =       4 ele =        33 
1.629e-05 // azi =       4 ele =        34 
1.610e-05 // azi =       4 ele =        35 
1.590e-05 // azi =       4 ele =        36 
1.570e-05 // azi =       4 ele =        37 
1.549e-05 // azi =       4 ele =        38 
1.527e-05 // azi =       4 ele =        39 
1.505e-05 // azi =       4 ele =        40 
1.483e-05 // azi =       4 ele =        41 
1.460e-05 // azi =       4 ele =        42 
1.437e-05 // azi =       4 ele =        43 
1.414e-05 // azi =       4 ele =        44 
1.390e-05 // azi =       4 ele =        45 
1.365e-05 // azi =       4 ele =        46 
1.340e-05 // azi =       4 ele =        47 
1.315e-05 // azi =       4 ele =        48 
1.289e-05 // azi =       4 ele =        49 
1.263e-05 // azi =       4 ele =        50 
1.237e-05 // azi =       4 ele =        51 
1.210e-05 // azi =       4 ele =        52 
1.183e-05 // azi =       4 ele =        53 
1.155e-05 // azi =       4 ele =        54 
1.127e-05 // azi =       4 ele =        55 
1.099e-05 // azi =       4 ele =        56 
1.070e-05 // azi =       4 ele =        57 
1.041e-05 // azi =       4 ele =        58 
1.012e-05 // azi =       4 ele =        59 
9.826e-06 // azi =       4 ele =        60 
9.528e-06 // azi =       4 ele =        61 
9.226e-06 // azi =       4 ele =        62 
8.922e-06 // azi =       4 ele =        63 
8.615e-06 // azi =       4 ele =        64 
8.305e-06 // azi =       4 ele =        65 
7.993e-06 // azi =       4 ele =        66 
7.679e-06 // azi =       4 ele =        67 
7.362e-06 // azi =       4 ele =        68 
7.043e-06 // azi =       4 ele =        69 
6.722e-06 // azi =       4 ele =        70 
6.398e-06 // azi =       4 ele =        71 
6.073e-06 // azi =       4 ele =        72 
5.746e-06 // azi =       4 ele =        73 
5.417e-06 // azi =       4 ele =        74 
5.086e-06 // azi =       4 ele =        75 
4.754e-06 // azi =       4 ele =        76 
4.421e-06 // azi =       4 ele =        77 
4.086e-06 // azi =       4 ele =        78 
3.750e-06 // azi =       4 ele =        79 
3.413e-06 // azi =       4 ele =        80 
3.074e-06 // azi =       4 ele =        81 
2.735e-06 // azi =       4 ele =        82 
2.395e-06 // azi =       4 ele =        83 
2.054e-06 // azi =       4 ele =        84 
1.713e-06 // azi =       4 ele =        85 
1.371e-06 // azi =       4 ele =        86 
1.029e-06 // azi =       4 ele =        87 
6.859e-07 // azi =       4 ele =        88 
3.430e-07 // azi =       4 ele =        89 
4.288e-08 // azi =       4 ele =        90 
9.826e-06 // azi =       5 ele =         0 
1.965e-05 // azi =       5 ele =         1 
1.964e-05 // azi =       5 ele =         2 
1.963e-05 // azi =       5 ele =         3 
1.960e-05 // azi =       5 ele =         4 
1.958e-05 // azi =       5 ele =         5 
1.954e-05 // azi =       5 ele =         6 
1.951e-05 // azi =       5 ele =         7 
1.946e-05 // azi =       5 ele =         8 
1.941e-05 // azi =       5 ele =         9 
1.935e-05 // azi =       5 ele =        10 
1.929e-05 // azi =       5 ele =        11 
1.922e-05 // azi =       5 ele =        12 
1.915e-05 // azi =       5 ele =        13 
1.907e-05 // azi =       5 ele =        14 
1.898e-05 // azi =       5 ele =        15 
1.889e-05 // azi =       5 ele =        16 
1.879e-05 // azi =       5 ele =        17 
1.869e-05 // azi =       5 ele =        18 
1.858e-05 // azi =       5 ele =        19 
1.847e-05 // azi =       5 ele =        20 
1.835e-05 // azi =       5 ele =        21 
1.822e-05 // azi =       5 ele =        22 
1.809e-05 // azi =       5 ele =        23 
1.795e-05 // azi =       5 ele =        24 
1.781e-05 // azi =       5 ele =        25 
1.766e-05 // azi =       5 ele =        26 
1.751e-05 // azi =       5 ele =        27 
1.735e-05 // azi =       5 ele =        28 
1.719e-05 // azi =       5 ele =        29 
1.702e-05 // azi =       5 ele =        30 
1.685e-05 // azi =       5 ele =        31 
1.667e-05 // azi =       5 ele =        32 
1.648e-05 // azi =       5 ele =        33 
1.629e-05 // azi =       5 ele =        34 
1.610e-05 // azi =       5 ele =        35 
1.590e-05 // azi =       5 ele =        36 
1.570e-05 // azi =       5 ele =        37 
1.549e-05 // azi =       5 ele =        38 
1.527e-05 // azi =       5 ele =        39 
1.505e-05 // azi =       5 ele =        40 
1.483e-05 // azi =       5 ele =        41 
1.460e-05 // azi =       5 ele =        42 
1.437e-05 // azi =       5 ele =        43 
1.414e-05 // azi =       5 ele =        44 
1.390e-05 // azi =       5 ele =        45 
1.365e-05 // azi =       5 ele =        46 
1.340e-05 // azi =       5 ele =        47 
1.315e-05 // azi =       5 ele =        48 
1.289e-05 // azi =       5 ele =        49 
1.263e-05 // azi =       5 ele =        50 
1.237e-05 // azi =       5 ele =        51 
1.210e-05 // azi =       5 ele =        52 
1.183e-05 // azi =       5 ele =        53 
1.155e-05 // azi =       5 ele =        54 
1.127e-05 // azi =       5 ele =        55 
1.099e-05 // azi =       5 ele =        56 
1.070e-05 // azi =       5 ele =        57 
1.041e-05 // azi =       5 ele =        58 
1.012e-05 // azi =       5 ele =        59 
9.826e-06 // azi =       5 ele =        60 
9.528e-06 // azi =       5 ele =        61 
9.226e-06 // azi =       5 ele =        62 
8.922e-06 // azi =       5 ele =        63 
8.615e-06 // azi =       5 ele =        64 
8.305e-06 // azi =       5 ele =        65 
7.993e-06 // azi =       5 ele =        66 
7.679e-06 // azi =       5 ele =        67 
7.362e-06 // azi =       5 ele =        68 
7.043e-06 // azi =       5 ele =        69 
6.722e-06 // azi =       5 ele =        70 
6.398e-06 // azi =       5 ele =        71 
6.073e-06 // azi =       5 ele =        72 
5.746e-06 // azi =       5 ele =        73 
5.417e-06 // azi =       5 ele =        74 
5.086e-06 // azi =       5 ele =        75 
4.754e-06 // azi =       5 ele =        76 
4.421e-06 // azi =       5 ele =        77 
4.086e-06 // azi =       5 ele =        78 
3.750e-06 // azi =       5 ele =        79 
3.413e-06 // azi =       5 ele =        80 
3.074e-06 // azi =       5 ele =        81 
2.735e-06 // azi =       5 ele =        82 
2.395e-06 // azi =       5 ele =        83 
2.054e-06 // azi =       5 ele =        84 
1.713e-06 // azi =       5 ele =        85 
1.371e-06 // azi =       5 ele =        86 
1.029e-06 // azi =       5 ele =        87 
6.859e-07 // azi =       5 ele =        88 
3.430e-07 // azi =       5 ele =        89 
4.288e-08 // azi =       5 ele =        90 
9.826e-06 // azi =       6 ele =         0 
1.965e-05 // azi =       6 ele =         1 
1.964e-05 // azi =       6 ele =         2 
1.963e-05 // azi =       6 ele =         3 
1.960e-05 // azi =       6 ele =         4 
1.958e-05 // azi =       6 ele =         5 
1.954e-05 // azi =       6 ele =         6 
1.951e-05 // azi =       6 ele =         7 
1.946e-05 // azi =       6 ele =         8 
1.941e-05 // azi =       6 ele =         9 
1.935e-05 // azi =       6 ele =        10 
1.929e-05 // azi =       6 ele =        11 
1.922e-05 // azi =       6 ele =        12 
1.915e-05 // azi =       6 ele =        13 
1.907e-05 // azi =       6 ele =        14 
1.898e-05 // azi =       6 ele =        15 
1.889e-05 // azi =       6 ele =        16 
1.879e-05 // azi =       6 ele =        17 
1.869e-05 // azi =       6 ele =        18 
1.858e-05 // azi =       6 ele =        19 
1.847e-05 // azi =       6 ele =        20 
1.835e-05 // azi =       6 ele =        21 
1.822e-05 // azi =       6 ele =        22 
1.809e-05 // azi =       6 ele =        23 
1.795e-05 // azi =       6 ele =        24 
1.781e-05 // azi =       6 ele =        25 
1.766e-05 // azi =       6 ele =        26 
1.751e-05 // azi =       6 ele =        27 
1.735e-05 // azi =       6 ele =        28 
1.719e-05 // azi =       6 ele =        29 
1.702e-05 // azi =       6 ele =        30 
1.685e-05 // azi =       6 ele =        31 
1.667e-05 // azi =       6 ele =        32 
1.648e-05 // azi =       6 ele =        33 
1.629e-05 // azi =       6 ele =        34 
1.610e-05 // azi =       6 ele =        35 
1.590e-05 // azi =       6 ele =        36 
1.570e-05 // azi =       6 ele =        37 
1.549e-05 // azi =       6 ele =        38 
1.527e-05 // azi =       6 ele =        39 
1.505e-05 // azi =       6 ele =        40 
1.483e-05 // azi =       6 ele =        41 
1.460e-05 // azi =       6 ele =        42 
1.437e-05 // azi =       6 ele =        43 
1.414e-05 // azi =       6 ele =        44 
1.390e-05 // azi =       6 ele =        45 
1.365e-05 // azi =       6 ele =        46 
1.340e-05 // azi =       6 ele =        47 
1.315e-05 // azi =       6 ele =        48 
1.289e-05 // azi =       6 ele =        49 
1.263e-05 // azi =       6 ele =        50 
1.237e-05 // azi =       6 ele =        51 
1.210e-05 // azi =       6 ele =        52 
1.183e-05 // azi =       6 ele =        53 
1.155e-05 // azi =       6 ele =        54 
1.127e-05 // azi =       6 ele =        55 
1.099e-05 // azi =       6 ele =        56 
1.070e-05 // azi =       6 ele =        57 
1.041e-05 // azi =       6 ele =        58 
1.012e-05 // azi =       6 ele =        59 
9.826e-06 // azi =       6 ele =        60 
9.528e-06 // azi =       6 ele =        61 
9.226e-06 // azi =       6 ele =        62 
8.922e-06 // azi =       6 ele =        63 
8.615e-06 // azi =       6 ele =        64 
8.305e-06 // azi =       6 ele =        65 
7.993e-06 // azi =       6 ele =        66 
7.679e-06 // azi =       6 ele =        67 
7.362e-06 // azi =       6 ele =        68 
7.043e-06 // azi =       6 ele =        69 
6.722e-06 // azi =       6 ele =        70 
6.398e-06 // azi =       6 ele =        71 
6.073e-06 // azi =       6 ele =        72 
5.746e-06 // azi =       6 ele =        73 
5.417e-06 // azi =       6 ele =        74 
5.086e-06 // azi =       6 ele =        75 
4.754e-06 // azi =       6 ele =        76 
4.421e-06 // azi =       6 ele =        77 
4.086e-06 // azi =       6 ele =        78 
3.750e-06 // azi =       6 ele =        79 
3.413e-06 // azi =       6 ele =        80 
3.074e-06 // azi =       6 ele =        81 
2.735e-06 // azi =       6 ele =        82 
2.395e-06 // azi =       6 ele =        83 
2.054e-06 // azi =       6 ele =        84 
1.713e-06 // azi =       6 ele =        85 
1.371e-06 // azi =       6 ele =        86 
1.029e-06 // azi =       6 ele =        87 
6.859e-07 // azi =       6 ele =        88 
3.430e-07 // azi =       6 ele =        89 
4.288e-08 // azi =       6 ele =        90 
9.826e-06 // azi =       7 ele =         0 
1.965e-05 // azi =       7 ele =         1 
1.964e-05 // azi =       7 ele =         2 
1.963e-05 // azi =       7 ele =         3 
1.960e-05 // azi =       7 ele =         4 
1.958e-05 // azi =       7 ele =         5 
1.954e-05 // azi =       7 ele =         6 
1.951e-05 // azi =       7 ele =         7 
1.946e-05 // azi =       7 ele =         8 
1.941e-05 // azi =       7 ele =         9 
1.935e-05 // azi =       7 ele =        10 
1.929e-05 // azi =       7 ele =        11 
1.922e-05 // azi =       7 ele =        12 
1.915e-05 // azi =       7 ele =        13 
1.907e-05 // azi =       7 ele =        14 
1.898e-05 // azi =       7 ele =        15 
1.889e-05 // azi =       7 ele =        16 
1.879e-05 // azi =       7 ele =        17 
1.869e-05 // azi =       7 ele =        18 
1.858e-05 // azi =       7 ele =        19 
1.847e-05 // azi =       7 ele =        20 
1.835e-05 // azi =       7 ele =        21 
1.822e-05 // azi =       7 ele =        22 
1.809e-05 // azi =       7 ele =        23 
1.795e-05 // azi =       7 ele =        24 
1.781e-05 // azi =       7 ele =        25 
1.766e-05 // azi =       7 ele =        26 
1.751e-05 // azi =       7 ele =        27 
1.735e-05 // azi =       7 ele =        28 
1.719e-05 // azi =       7 ele =        29 
1.702e-05 // azi =       7 ele =        30 
1.685e-05 // azi =       7 ele =        31 
1.667e-05 // azi =       7 ele =        32 
1.648e-05 // azi =       7 ele =        33 
1.629e-05 // azi =       7 ele =        34 
1.610e-05 // azi =       7 ele =        35 
1.590e-05 // azi =       7 ele =        36 
1.570e-05 // azi =       7 ele =        37 
1.549e-05 // azi =       7 ele =        38 
1.527e-05 // azi =       7 ele =        39 