/*---------------------------------------------------------------------------*\
| =========                 |                                                 |
| \\      /  F ield         | OpenFOAM: The Open Source CFD Toolbox           |
|  \\    /   O peration     | Version:  1.4                                   |
|   \\  /    A nd           | Web:      http://www.openfoam.org               |
|    \\/     M anipulation  |                                                 |
\*---------------------------------------------------------------------------*/

FoamFile
{
    version         2.0;
    format          ascii;

    root            "";
    case            "";
    instance        "";
    local           "";

    class           volScalarField;
    object          k;
}

// * * * * * * * * * * * * * * * * * * * * * * * * * * * * * * * * * * * * * //


dimensions      [0 2 -2 0 0 0 0];

internalField   uniform 1e-5;

boundaryField
{
    wall           
    {
        type            zeroGradient;
    }

    outlet      
    {
        type            inletOutlet;
        inletValue      $internalField;
        value           $internalField;
    }

    ground           
    {
        type            zeroGradient;
    }

    side          
    {
        type            inletOutlet;
        inletValue      $internalField;
        value           $internalField;
    }

    frontAndBack
    {
        type            empty;
    }

    burner          
    {
        type            fixedValue;
        value           $internalField;
    }
    region0_to_panelRegion_panel
    {
        type            zeroGradient;
    }

}


// ************************************************************************* //
