/*--------------------------------*- C++ -*----------------------------------*\
| =========                 |                                                 |
| \\      /  F ield         | OpenFOAM: The Open Source CFD Toolbox           |
|  \\    /   O peration     | Version:  1.7.x                                 |
|   \\  /    A nd           | Web:      www.OpenFOAM.com                      |
|    \\/     M anipulation  |                                                 |
\*---------------------------------------------------------------------------*/
FoamFile
{
    version     2.0;
    format      ascii;
    class       dictionary;
    object      extrudeToRegionMeshDict;
}
// * * * * * * * * * * * * * * * * * * * * * * * * * * * * * * * * * * * * * //

region          pyrolysisRegion;

faceZones       (
                    box_xnorm_p
                    box_xnorm_m
                    box_ynorm_p
                    box_ynorm_m
                    box_znorm_p
                    box_znorm_m
                );

oneD            true;

sampleMode      nearestPatchFace;

extrudeModel    linearNormal;

oneDPolyPatchType empty; //emptyPolyPatch; //wedgePolyPatch

nLayers         10;

expansionRatio  1;

adaptMesh       true; // directMapped for both

linearNormalCoeffs
{
    thickness       0.02286;
//    thickness       0.0039;
}

