/*--------------------------------*- C++ -*----------------------------------*\
| =========                 |                                                 |
| \\      /  F ield         | OpenFOAM: The Open Source CFD Toolbox           |
|  \\    /   O peration     | Version:  2.2.x                                 |
|   \\  /    A nd           | Web:      www.OpenFOAM.org                      |
|    \\/     M anipulation  |                                                 |
\*---------------------------------------------------------------------------*/
FoamFile
{
    version     2.0;
    format      ascii;
    class       dictionary;
    object      extrudeToRegionMeshDict;
}
// * * * * * * * * * * * * * * * * * * * * * * * * * * * * * * * * * * * * * //

region          filmRegion;

faceZones       (
                    box_xnorm_p
                    box_xnorm_m
                    box_ynorm_p
                    box_ynorm_m
                    box_znorm_p
                    box_znorm_m
                );

oneD            false;

sampleMode      nearestPatchFace;

extrudeModel    linearNormal;

nLayers         1;

expansionRatio  1;

adaptMesh       false; // leave primary region patches intact

linearNormalCoeffs
{
    thickness       0.001;
}

// * * * * * * * * * * * * * * * * * * * * * * * * * * * * * * * * * * * * * //
