/*--------------------------------*- C++ -*----------------------------------*\
| =========                 |                                                 |
| \\      /  F ield         | OpenFOAM: The Open Source CFD Toolbox           |
|  \\    /   O peration     | Version:  2.4.x                                 |
|   \\  /    A nd           | Web:      www.OpenFOAM.org                      |
|    \\/     M anipulation  |                                                 |
\*---------------------------------------------------------------------------*/
FoamFile
{
    version     2.0;
    format      ascii;
    class       dictionary;
    location    "system";
    object      fvSolution;
}

// * * * * * * * * * * * * * * * * * * * * * * * * * * * * * * * * * * * * * //

solvers
{
    "(rho|G)"
    {
        solver          PCG;
        preconditioner  DIC;
        tolerance       1e-05;
        relTol          0;
    }

    rhoFinal
    {
        $rho;
        tolerance       1e-6;
        relTol          0;
    };

    p_rgh
    {
        solver              GAMG;
        tolerance           1e-5;
        relTol              0.01;
        smoother            GaussSeidel;
        cacheAgglomeration  true;
        nCellsInCoarsestLevel   10;
        //nCellsInCoarsestLevel   1;
        agglomerator    faceAreaPair;
        mergeLevels     1;
    };

    p_rghFinal
    {
        solver              GAMG;
        tolerance           1e-6;
        relTol              0;
        smoother            GaussSeidel;
        cacheAgglomeration  true;
        nCellsInCoarsestLevel 10;
        //nCellsInCoarsestLevel 1;
        agglomerator     faceAreaPair;
        mergeLevels      1;
    };


    "(U|h|k|epsilon)"
    {
        solver          PBiCG;
        preconditioner  DILU;
        tolerance       1e-05;
        relTol          0;
    }
    UFinal
    {
        solver          PBiCG;
        preconditioner  DILU;
        tolerance       1e-7;
        relTol          0;
    };

    kFinal 
    {
        $k;
        tolerance       1e-8;
        relTol          0;
    };

    p
    {
        solver          PCG;
        preconditioner  DIC;
        tolerance       1e-06;
        relTol          0;
    }

    "(Yi|O2|N2|H2O)"
    {
        solver          PBiCG;
        preconditioner  DILU;
        tolerance       1e-06;
        relTol          0;
    }
    hs
    {
        solver          PBiCG;
        preconditioner  DILU;
        tolerance       1e-8;
        relTol          0;
    };

    "hFinal"
    {
        $h;
        tolerance       1e-8;
        relTol          0;
    };

    Ii
    {
        solver              GAMG;
        tolerance           1e-4;
        relTol              0;
        smoother            DILU;
        cacheAgglomeration  true;
        nCellsInCoarsestLevel   10;
        agglomerator    faceAreaPair;
        mergeLevels     1;
    }

    G
    {
        solver          PCG;
        preconditioner  DIC;
        tolerance       1e-06;
        relTol          0;
    }

}

PIMPLE
{
    momentumPredictor yes;
    nOuterCorrectors  1;//3;
    nCorrectors       2;
    nNonOrthogonalCorrectors 0;
}

relaxationFactors
{
    U       0.9;
    "C3H8|CH4|O2|H2O|CO2"  0.9;       
    hs       0.9;
    k        0.9;
}

// ************************************************************************* //
