/*--------------------------------*- C++ -*----------------------------------*\
| =========                 |                                                 |
| \\      /  F ield         | OpenFOAM: The Open Source CFD Toolbox           |
|  \\    /   O peration     | Version:  2.4.x                                 |
|   \\  /    A nd           | Web:      www.OpenFOAM.org                      |
|    \\/     M anipulation  |                                                 |
\*---------------------------------------------------------------------------*/
FoamFile
{
    version     2.0;
    format      ascii;
    class       volScalarField;
    location    "0";
    object      IDefault;
}
// * * * * * * * * * * * * * * * * * * * * * * * * * * * * * * * * * * * * * //

dimensions      [1 0 -3 0 0 0 0];

internalField   uniform 0;

boundaryField
{
    top      
    {
        type            greyDiffusiveRadiation;
        T               T;
        emissivityMode  lookup; 
        emissivity      uniform 1.0;
        value           uniform 0;
    }
    base           
    {
        type            greyDiffusiveRadiation;
        T               T;
        emissivityMode  lookup;
        emissivity      uniform 1.0;
        value           uniform 0;
    }
    sides
    {
        type            greyDiffusiveRadiation;
        T               T;
        emissivityMode  lookup; 
        emissivity      uniform 1.0;
        value           uniform 0;
    }
    burner          
    {
        type            greyDiffusiveRadiation;
        T               T;
        emissivityMode  lookup; 
        emissivity      uniform 1.0;
        value           uniform 0;
    }
    "(region0_to_pyrolysisRegion_box_.*)"
    {
        type            greyDiffusiveRadiation;
        T               T;
        emissivityMode  solidRadiation; //lookup; 
        value           uniform 0;
    }
}

// ************************************************************************* //

