/*--------------------------------*- C++ -*----------------------------------*\
| =========                 |                                                 |
| \\      /  F ield         | OpenFOAM: The Open Source CFD Toolbox           |
|  \\    /   O peration     | Version:  2.4.x                                 |
|   \\  /    A nd           | Web:      www.OpenFOAM.org                      |
|    \\/     M anipulation  |                                                 |
\*---------------------------------------------------------------------------*/
FoamFile
{
    version     2.0;
    format      ascii;
    class       volScalarField;
    location    "0";
    object      muSgs;
}
// * * * * * * * * * * * * * * * * * * * * * * * * * * * * * * * * * * * * * //

dimensions      [1 -1 -1 0 0 0 0];

internalField   uniform 1e-8;

boundaryField
{
    top
    {
        type            zeroGradient;
    }
    sides
    {
        type            zeroGradient;
    }
    base
    {
        type            fixedValue;
        value           uniform 0;
    }
    burner          
    {
        type            zeroGradient;
    }
    "(region0_to_pyrolysisRegion_box_.*)"
    {
        type            fixedValue;
        value           uniform 1e-8;
    }
}


// ************************************************************************* //

