/*--------------------------------*- C++ -*----------------------------------*\
| =========                 |                                                 |
| \\      /  F ield         | OpenFOAM: The Open Source CFD Toolbox           |
|  \\    /   O peration     | Version:  2.2.x                                 |
|   \\  /    A nd           | Web:      www.OpenFOAM.org                      |
|    \\/     M anipulation  |                                                 |
\*---------------------------------------------------------------------------*/
FoamFile
{
    version     2.0;
    format      ascii;
    class       volScalarField;
    location    "0";
    object      T;
}
// * * * * * * * * * * * * * * * * * * * * * * * * * * * * * * * * * * * * * //

dimensions      [0 0 0 1 0 0 0];

internalField   uniform 298.15;

boundaryField
{
    top
    {
        type                inletOutlet;
        inletValue          $internalField;
        value               $internalField;
    }
    sides
    {
        type                inletOutlet;
        inletValue          $internalField;
        value               $internalField;
    }
    base
    {
        type                fixedValue;
        value               $internalField;
    }
    burner          
    {
        type                fixedValue;
        value               $internalField;
    }
    "(region0_to.*)"
    {
        type                compressible::turbulentTemperatureRadiationCoupledMixedST;
        filmRegion          filmRegion;
        pyrolysisRegion     pyrolysisRegion;
        Tnbr                T;
        K                   none;
        kappa               fluidThermo;
        kappaName           none;
        emissivityMode      solidRadiation;
        neighbourFieldRadiativeName none;
        fieldRadiativeName  Qin; //Qr;
        convectiveScaling   1.0;
        value               $internalField;
    }
}


// ************************************************************************* //
