FoamFile
{
    version     2.0;
    format      ascii;
    class       dictionary;
    location    "constant";
    object      LookupTableInjection;
}
dv50
List<scalar>
 2790
(
1.871e-03 // azi =       0 ele =         0 
1.905e-03 // azi =       0 ele =         3 
1.916e-03 // azi =       0 ele =         6 
1.890e-03 // azi =       0 ele =         9 
1.892e-03 // azi =       0 ele =        12 
1.934e-03 // azi =       0 ele =        15 
1.877e-03 // azi =       0 ele =        18 
1.854e-03 // azi =       0 ele =        21 
1.874e-03 // azi =       0 ele =        24 
1.833e-03 // azi =       0 ele =        27 
1.686e-03 // azi =       0 ele =        30 
1.564e-03 // azi =       0 ele =        33 
1.393e-03 // azi =       0 ele =        36 
1.514e-03 // azi =       0 ele =        39 
1.408e-03 // azi =       0 ele =        42 
1.447e-03 // azi =       0 ele =        45 
1.360e-03 // azi =       0 ele =        48 
1.398e-03 // azi =       0 ele =        51 
1.278e-03 // azi =       0 ele =        54 
1.263e-03 // azi =       0 ele =        57 
1.160e-03 // azi =       0 ele =        60 
1.112e-03 // azi =       0 ele =        63 
1.059e-03 // azi =       0 ele =        66 
1.035e-03 // azi =       0 ele =        69 
9.881e-04 // azi =       0 ele =        72 
9.722e-04 // azi =       0 ele =        75 
9.510e-04 // azi =       0 ele =        78 
9.208e-04 // azi =       0 ele =        81 
8.770e-04 // azi =       0 ele =        84 
8.108e-04 // azi =       0 ele =        87 
7.035e-04 // azi =       0 ele =        90 
1.854e-03 // azi =       4 ele =         0 
1.871e-03 // azi =       4 ele =         3 
1.877e-03 // azi =       4 ele =         6 
1.881e-03 // azi =       4 ele =         9 
1.878e-03 // azi =       4 ele =        12 
1.876e-03 // azi =       4 ele =        15 
1.861e-03 // azi =       4 ele =        18 
1.843e-03 // azi =       4 ele =        21 
1.831e-03 // azi =       4 ele =        24 
1.799e-03 // azi =       4 ele =        27 
1.681e-03 // azi =       4 ele =        30 
1.596e-03 // azi =       4 ele =        33 
1.538e-03 // azi =       4 ele =        36 
1.411e-03 // azi =       4 ele =        39 
1.397e-03 // azi =       4 ele =        42 
1.389e-03 // azi =       4 ele =        45 
1.311e-03 // azi =       4 ele =        48 
1.319e-03 // azi =       4 ele =        51 
1.251e-03 // azi =       4 ele =        54 
1.135e-03 // azi =       4 ele =        57 
1.157e-03 // azi =       4 ele =        60 
1.112e-03 // azi =       4 ele =        63 
1.068e-03 // azi =       4 ele =        66 
1.050e-03 // azi =       4 ele =        69 
9.898e-04 // azi =       4 ele =        72 
9.747e-04 // azi =       4 ele =        75 
9.533e-04 // azi =       4 ele =        78 
9.226e-04 // azi =       4 ele =        81 
8.780e-04 // azi =       4 ele =        84 
8.112e-04 // azi =       4 ele =        87 
7.035e-04 // azi =       4 ele =        90 
1.824e-03 // azi =       8 ele =         0 
1.834e-03 // azi =       8 ele =         3 
1.841e-03 // azi =       8 ele =         6 
1.845e-03 // azi =       8 ele =         9 
1.860e-03 // azi =       8 ele =        12 
1.853e-03 // azi =       8 ele =        15 
1.842e-03 // azi =       8 ele =        18 
1.827e-03 // azi =       8 ele =        21 
1.808e-03 // azi =       8 ele =        24 
1.779e-03 // azi =       8 ele =        27 
1.676e-03 // azi =       8 ele =        30 
1.628e-03 // azi =       8 ele =        33 
1.427e-03 // azi =       8 ele =        36 
1.410e-03 // azi =       8 ele =        39 
1.376e-03 // azi =       8 ele =        42 
1.362e-03 // azi =       8 ele =        45 
1.244e-03 // azi =       8 ele =        48 
1.239e-03 // azi =       8 ele =        51 
1.152e-03 // azi =       8 ele =        54 
1.107e-03 // azi =       8 ele =        57 
1.151e-03 // azi =       8 ele =        60 
1.113e-03 // azi =       8 ele =        63 
1.081e-03 // azi =       8 ele =        66 
1.068e-03 // azi =       8 ele =        69 
9.913e-04 // azi =       8 ele =        72 
9.771e-04 // azi =       8 ele =        75 
9.555e-04 // azi =       8 ele =        78 
9.242e-04 // azi =       8 ele =        81 
8.790e-04 // azi =       8 ele =        84 
8.115e-04 // azi =       8 ele =        87 
7.035e-04 // azi =       8 ele =        90 
1.651e-03 // azi =      12 ele =         0 
1.659e-03 // azi =      12 ele =         3 
1.802e-03 // azi =      12 ele =         6 
1.808e-03 // azi =      12 ele =         9 
1.785e-03 // azi =      12 ele =        12 
1.784e-03 // azi =      12 ele =        15 
1.827e-03 // azi =      12 ele =        18 
1.814e-03 // azi =      12 ele =        21 
1.619e-03 // azi =      12 ele =        24 
1.600e-03 // azi =      12 ele =        27 
1.530e-03 // azi =      12 ele =        30 
1.413e-03 // azi =      12 ele =        33 
1.393e-03 // azi =      12 ele =        36 
1.380e-03 // azi =      12 ele =        39 
1.126e-03 // azi =      12 ele =        42 
1.129e-03 // azi =      12 ele =        45 
1.135e-03 // azi =      12 ele =        48 
1.173e-03 // azi =      12 ele =        51 
1.097e-03 // azi =      12 ele =        54 
1.075e-03 // azi =      12 ele =        57 
1.057e-03 // azi =      12 ele =        60 
1.113e-03 // azi =      12 ele =        63 
1.090e-03 // azi =      12 ele =        66 
1.078e-03 // azi =      12 ele =        69 
9.936e-04 // azi =      12 ele =        72 
9.796e-04 // azi =      12 ele =        75 
9.575e-04 // azi =      12 ele =        78 
9.256e-04 // azi =      12 ele =        81 
8.797e-04 // azi =      12 ele =        84 
8.118e-04 // azi =      12 ele =        87 
7.035e-04 // azi =      12 ele =        90 
1.588e-03 // azi =      16 ele =         0 
1.589e-03 // azi =      16 ele =         3 
1.589e-03 // azi =      16 ele =         6 
1.588e-03 // azi =      16 ele =         9 
1.587e-03 // azi =      16 ele =        12 
1.728e-03 // azi =      16 ele =        15 
1.506e-03 // azi =      16 ele =        18 
1.503e-03 // azi =      16 ele =        21 
1.554e-03 // azi =      16 ele =        24 
1.273e-03 // azi =      16 ele =        27 
1.261e-03 // azi =      16 ele =        30 
1.247e-03 // azi =      16 ele =        33 
1.341e-03 // azi =      16 ele =        36 
1.061e-03 // azi =      16 ele =        39 
1.060e-03 // azi =      16 ele =        42 
1.060e-03 // azi =      16 ele =        45 
1.060e-03 // azi =      16 ele =        48 
9.900e-04 // azi =      16 ele =        51 
1.045e-03 // azi =      16 ele =        54 
1.041e-03 // azi =      16 ele =        57 
1.038e-03 // azi =      16 ele =        60 
1.112e-03 // azi =      16 ele =        63 
1.093e-03 // azi =      16 ele =        66 
1.083e-03 // azi =      16 ele =        69 
9.969e-04 // azi =      16 ele =        72 
9.822e-04 // azi =      16 ele =        75 
9.594e-04 // azi =      16 ele =        78 
9.268e-04 // azi =      16 ele =        81 
8.804e-04 // azi =      16 ele =        84 
8.120e-04 // azi =      16 ele =        87 
7.035e-04 // azi =      16 ele =        90 
1.526e-03 // azi =      20 ele =         0 
1.520e-03 // azi =      20 ele =         3 
1.514e-03 // azi =      20 ele =         6 
1.511e-03 // azi =      20 ele =         9 
1.299e-03 // azi =      20 ele =        12 
1.291e-03 // azi =      20 ele =        15 
1.282e-03 // azi =      20 ele =        18 
1.159e-03 // azi =      20 ele =        21 
1.150e-03 // azi =      20 ele =        24 
1.137e-03 // azi =      20 ele =        27 
1.178e-03 // azi =      20 ele =        30 
1.166e-03 // azi =      20 ele =        33 
9.024e-04 // azi =      20 ele =        36 
9.964e-04 // azi =      20 ele =        39 
9.943e-04 // azi =      20 ele =        42 
8.648e-04 // azi =      20 ele =        45 
8.678e-04 // azi =      20 ele =        48 
8.719e-04 // azi =      20 ele =        51 
9.409e-04 // azi =      20 ele =        54 
1.007e-03 // azi =      20 ele =        57 
9.408e-04 // azi =      20 ele =        60 
9.680e-04 // azi =      20 ele =        63 
9.883e-04 // azi =      20 ele =        66 
9.987e-04 // azi =      20 ele =        69 
1.001e-03 // azi =      20 ele =        72 
9.850e-04 // azi =      20 ele =        75 
9.611e-04 // azi =      20 ele =        78 
9.278e-04 // azi =      20 ele =        81 
8.809e-04 // azi =      20 ele =        84 
8.121e-04 // azi =      20 ele =        87 
7.035e-04 // azi =      20 ele =        90 
1.317e-03 // azi =      24 ele =         0 
1.213e-03 // azi =      24 ele =         3 
1.143e-03 // azi =      24 ele =         6 
1.136e-03 // azi =      24 ele =         9 
1.170e-03 // azi =      24 ele =        12 
1.158e-03 // azi =      24 ele =        15 
1.041e-03 // azi =      24 ele =        18 
1.019e-03 // azi =      24 ele =        21 
9.331e-04 // azi =      24 ele =        24 
9.169e-04 // azi =      24 ele =        27 
8.925e-04 // azi =      24 ele =        30 
7.842e-04 // azi =      24 ele =        33 
7.707e-04 // azi =      24 ele =        36 
7.588e-04 // azi =      24 ele =        39 
7.123e-04 // azi =      24 ele =        42 
8.169e-04 // azi =      24 ele =        45 
8.107e-04 // azi =      24 ele =        48 
8.117e-04 // azi =      24 ele =        51 
8.878e-04 // azi =      24 ele =        54 
8.441e-04 // azi =      24 ele =        57 
9.371e-04 // azi =      24 ele =        60 
9.705e-04 // azi =      24 ele =        63 
9.959e-04 // azi =      24 ele =        66 
1.014e-03 // azi =      24 ele =        69 
1.007e-03 // azi =      24 ele =        72 
9.878e-04 // azi =      24 ele =        75 
9.626e-04 // azi =      24 ele =        78 
9.286e-04 // azi =      24 ele =        81 
8.812e-04 // azi =      24 ele =        84 
8.122e-04 // azi =      24 ele =        87 
7.035e-04 // azi =      24 ele =        90 
1.216e-03 // azi =      28 ele =         0 
1.219e-03 // azi =      28 ele =         3 
1.217e-03 // azi =      28 ele =         6 
1.148e-03 // azi =      28 ele =         9 
1.172e-03 // azi =      28 ele =        12 
1.157e-03 // azi =      28 ele =        15 
1.140e-03 // azi =      28 ele =        18 
9.586e-04 // azi =      28 ele =        21 
9.382e-04 // azi =      28 ele =        24 
9.184e-04 // azi =      28 ele =        27 
8.442e-04 // azi =      28 ele =        30 
8.220e-04 // azi =      28 ele =        33 
7.661e-04 // azi =      28 ele =        36 
7.555e-04 // azi =      28 ele =        39 
7.130e-04 // azi =      28 ele =        42 
6.992e-04 // azi =      28 ele =        45 
6.820e-04 // azi =      28 ele =        48 
7.047e-04 // azi =      28 ele =        51 
7.841e-04 // azi =      28 ele =        54 
8.350e-04 // azi =      28 ele =        57 
8.858e-04 // azi =      28 ele =        60 
9.747e-04 // azi =      28 ele =        63 
1.007e-03 // azi =      28 ele =        66 
1.024e-03 // azi =      28 ele =        69 
1.008e-03 // azi =      28 ele =        72 
9.903e-04 // azi =      28 ele =        75 
9.638e-04 // azi =      28 ele =        78 
9.291e-04 // azi =      28 ele =        81 
8.814e-04 // azi =      28 ele =        84 
8.123e-04 // azi =      28 ele =        87 
7.035e-04 // azi =      28 ele =        90 
1.220e-03 // azi =      32 ele =         0 
1.232e-03 // azi =      32 ele =         3 
1.235e-03 // azi =      32 ele =         6 
1.213e-03 // azi =      32 ele =         9 
1.172e-03 // azi =      32 ele =        12 
1.152e-03 // azi =      32 ele =        15 
1.138e-03 // azi =      32 ele =        18 
1.047e-03 // azi =      32 ele =        21 
9.431e-04 // azi =      32 ele =        24 
9.250e-04 // azi =      32 ele =        27 
8.477e-04 // azi =      32 ele =        30 
8.068e-04 // azi =      32 ele =        33 
7.483e-04 // azi =      32 ele =        36 
7.512e-04 // azi =      32 ele =        39 
7.160e-04 // azi =      32 ele =        42 
6.973e-04 // azi =      32 ele =        45 
6.641e-04 // azi =      32 ele =        48 
6.634e-04 // azi =      32 ele =        51 
7.646e-04 // azi =      32 ele =        54 
8.287e-04 // azi =      32 ele =        57 
8.864e-04 // azi =      32 ele =        60 
9.793e-04 // azi =      32 ele =        63 
1.018e-03 // azi =      32 ele =        66 
1.036e-03 // azi =      32 ele =        69 
1.009e-03 // azi =      32 ele =        72 
9.923e-04 // azi =      32 ele =        75 
9.646e-04 // azi =      32 ele =        78 
9.293e-04 // azi =      32 ele =        81 
8.814e-04 // azi =      32 ele =        84 
8.122e-04 // azi =      32 ele =        87 
7.035e-04 // azi =      32 ele =        90 
1.213e-03 // azi =      36 ele =         0 
1.226e-03 // azi =      36 ele =         3 
1.230e-03 // azi =      36 ele =         6 
1.212e-03 // azi =      36 ele =         9 
1.195e-03 // azi =      36 ele =        12 
1.160e-03 // azi =      36 ele =        15 
1.093e-03 // azi =      36 ele =        18 
1.050e-03 // azi =      36 ele =        21 
9.398e-04 // azi =      36 ele =        24 
8.856e-04 // azi =      36 ele =        27 
8.483e-04 // azi =      36 ele =        30 
8.102e-04 // azi =      36 ele =        33 
7.735e-04 // azi =      36 ele =        36 
7.324e-04 // azi =      36 ele =        39 
7.228e-04 // azi =      36 ele =        42 
7.037e-04 // azi =      36 ele =        45 
6.713e-04 // azi =      36 ele =        48 
6.543e-04 // azi =      36 ele =        51 
7.653e-04 // azi =      36 ele =        54 
8.282e-04 // azi =      36 ele =        57 
8.877e-04 // azi =      36 ele =        60 
9.462e-04 // azi =      36 ele =        63 
1.021e-03 // azi =      36 ele =        66 
1.036e-03 // azi =      36 ele =        69 
1.009e-03 // azi =      36 ele =        72 
9.889e-04 // azi =      36 ele =        75 
9.649e-04 // azi =      36 ele =        78 
9.292e-04 // azi =      36 ele =        81 
8.813e-04 // azi =      36 ele =        84 
8.122e-04 // azi =      36 ele =        87 
7.035e-04 // azi =      36 ele =        90 
1.193e-03 // azi =      40 ele =         0 
1.190e-03 // azi =      40 ele =         3 
1.193e-03 // azi =      40 ele =         6 
1.204e-03 // azi =      40 ele =         9 
1.217e-03 // azi =      40 ele =        12 
1.162e-03 // azi =      40 ele =        15 
1.109e-03 // azi =      40 ele =        18 
1.059e-03 // azi =      40 ele =        21 
1.018e-03 // azi =      40 ele =        24 
8.637e-04 // azi =      40 ele =        27 
8.473e-04 // azi =      40 ele =        30 
8.291e-04 // azi =      40 ele =        33 
8.180e-04 // azi =      40 ele =        36 
7.494e-04 // azi =      40 ele =        39 
7.337e-04 // azi =      40 ele =        42 
7.175e-04 // azi =      40 ele =        45 
7.052e-04 // azi =      40 ele =        48 
7.006e-04 // azi =      40 ele =        51 
7.813e-04 // azi =      40 ele =        54 
8.327e-04 // azi =      40 ele =        57 
8.897e-04 // azi =      40 ele =        60 
9.477e-04 // azi =      40 ele =        63 
1.024e-03 // azi =      40 ele =        66 
1.030e-03 // azi =      40 ele =        69 
1.006e-03 // azi =      40 ele =        72 
9.853e-04 // azi =      40 ele =        75 
9.003e-04 // azi =      40 ele =        78 
8.660e-04 // azi =      40 ele =        81 
8.278e-04 // azi =      40 ele =        84 
7.781e-04 // azi =      40 ele =        87 
7.035e-04 // azi =      40 ele =        90 
1.173e-03 // azi =      44 ele =         0 
1.144e-03 // azi =      44 ele =         3 
1.132e-03 // azi =      44 ele =         6 
1.193e-03 // azi =      44 ele =         9 
1.245e-03 // azi =      44 ele =        12 
1.275e-03 // azi =      44 ele =        15 
1.157e-03 // azi =      44 ele =        18 
1.055e-03 // azi =      44 ele =        21 
9.271e-04 // azi =      44 ele =        24 
9.294e-04 // azi =      44 ele =        27 
8.486e-04 // azi =      44 ele =        30 
8.373e-04 // azi =      44 ele =        33 
8.338e-04 // azi =      44 ele =        36 
7.713e-04 // azi =      44 ele =        39 
7.444e-04 // azi =      44 ele =        42 
7.294e-04 // azi =      44 ele =        45 
7.286e-04 // azi =      44 ele =        48 
7.329e-04 // azi =      44 ele =        51 
7.938e-04 // azi =      44 ele =        54 
8.392e-04 // azi =      44 ele =        57 
8.918e-04 // azi =      44 ele =        60 
9.473e-04 // azi =      44 ele =        63 
1.004e-03 // azi =      44 ele =        66 
1.035e-03 // azi =      44 ele =        69 
1.001e-03 // azi =      44 ele =        72 
9.314e-04 // azi =      44 ele =        75 
8.974e-04 // azi =      44 ele =        78 
8.646e-04 // azi =      44 ele =        81 
8.273e-04 // azi =      44 ele =        84 
7.780e-04 // azi =      44 ele =        87 
7.035e-04 // azi =      44 ele =        90 
1.173e-03 // azi =      48 ele =         0 
1.158e-03 // azi =      48 ele =         3 
1.161e-03 // azi =      48 ele =         6 
1.196e-03 // azi =      48 ele =         9 
1.180e-03 // azi =      48 ele =        12 
1.204e-03 // azi =      48 ele =        15 
1.158e-03 // azi =      48 ele =        18 
1.063e-03 // azi =      48 ele =        21 
9.592e-04 // azi =      48 ele =        24 
9.438e-04 // azi =      48 ele =        27 
8.485e-04 // azi =      48 ele =        30 
8.403e-04 // azi =      48 ele =        33 
8.159e-04 // azi =      48 ele =        36 
8.059e-04 // azi =      48 ele =        39 
7.482e-04 // azi =      48 ele =        42 
7.354e-04 // azi =      48 ele =        45 
7.325e-04 // azi =      48 ele =        48 
7.603e-04 // azi =      48 ele =        51 
8.064e-04 // azi =      48 ele =        54 
8.468e-04 // azi =      48 ele =        57 
8.936e-04 // azi =      48 ele =        60 
9.502e-04 // azi =      48 ele =        63 
9.913e-04 // azi =      48 ele =        66 
1.003e-03 // azi =      48 ele =        69 
9.544e-04 // azi =      48 ele =        72 
9.229e-04 // azi =      48 ele =        75 
8.933e-04 // azi =      48 ele =        78 
8.627e-04 // azi =      48 ele =        81 
8.266e-04 // azi =      48 ele =        84 
7.779e-04 // azi =      48 ele =        87 
7.035e-04 // azi =      48 ele =        90 
1.185e-03 // azi =      52 ele =         0 
1.184e-03 // azi =      52 ele =         3 
1.190e-03 // azi =      52 ele =         6 
1.159e-03 // azi =      52 ele =         9 
1.148e-03 // azi =      52 ele =        12 
1.148e-03 // azi =      52 ele =        15 
1.128e-03 // azi =      52 ele =        18 
1.023e-03 // azi =      52 ele =        21 
9.888e-04 // azi =      52 ele =        24 
9.671e-04 // azi =      52 ele =        27 
9.139e-04 // azi =      52 ele =        30 
8.423e-04 // azi =      52 ele =        33 
8.082e-04 // azi =      52 ele =        36 
8.021e-04 // azi =      52 ele =        39 
7.464e-04 // azi =      52 ele =        42 
7.372e-04 // azi =      52 ele =        45 
7.377e-04 // azi =      52 ele =        48 
7.342e-04 // azi =      52 ele =        51 
8.222e-04 // azi =      52 ele =        54 
8.552e-04 // azi =      52 ele =        57 
9.085e-04 // azi =      52 ele =        60 
9.358e-04 // azi =      52 ele =        63 
9.575e-04 // azi =      52 ele =        66 
9.646e-04 // azi =      52 ele =        69 
9.352e-04 // azi =      52 ele =        72 
9.109e-04 // azi =      52 ele =        75 
8.884e-04 // azi =      52 ele =        78 
8.603e-04 // azi =      52 ele =        81 
8.257e-04 // azi =      52 ele =        84 
7.777e-04 // azi =      52 ele =        87 
7.035e-04 // azi =      52 ele =        90 
1.192e-03 // azi =      56 ele =         0 
1.194e-03 // azi =      56 ele =         3 
1.126e-03 // azi =      56 ele =         6 
1.130e-03 // azi =      56 ele =         9 
1.163e-03 // azi =      56 ele =        12 
1.159e-03 // azi =      56 ele =        15 
1.064e-03 // azi =      56 ele =        18 
1.042e-03 // azi =      56 ele =        21 
9.884e-04 // azi =      56 ele =        24 
9.706e-04 // azi =      56 ele =        27 
9.730e-04 // azi =      56 ele =        30 
8.537e-04 // azi =      56 ele =        33 
8.558e-04 // azi =      56 ele =        36 
7.998e-04 // azi =      56 ele =        39 
7.509e-04 // azi =      56 ele =        42 
7.446e-04 // azi =      56 ele =        45 
7.398e-04 // azi =      56 ele =        48 
7.364e-04 // azi =      56 ele =        51 
7.831e-04 // azi =      56 ele =        54 
8.010e-04 // azi =      56 ele =        57 
8.992e-04 // azi =      56 ele =        60 
9.182e-04 // azi =      56 ele =        63 
9.236e-04 // azi =      56 ele =        66 
9.267e-04 // azi =      56 ele =        69 
9.117e-04 // azi =      56 ele =        72 
8.969e-04 // azi =      56 ele =        75 
8.827e-04 // azi =      56 ele =        78 
8.577e-04 // azi =      56 ele =        81 
8.247e-04 // azi =      56 ele =        84 
7.774e-04 // azi =      56 ele =        87 
7.035e-04 // azi =      56 ele =        90 
1.206e-03 // azi =      60 ele =         0 
1.209e-03 // azi =      60 ele =         3 
1.214e-03 // azi =      60 ele =         6 
1.219e-03 // azi =      60 ele =         9 
1.226e-03 // azi =      60 ele =        12 
1.164e-03 // azi =      60 ele =        15 
1.116e-03 // azi =      60 ele =        18 
1.103e-03 // azi =      60 ele =        21 
9.833e-04 // azi =      60 ele =        24 
8.963e-04 // azi =      60 ele =        27 
8.968e-04 // azi =      60 ele =        30 
8.973e-04 // azi =      60 ele =        33 
8.662e-04 // azi =      60 ele =        36 
8.389e-04 // azi =      60 ele =        39 
8.319e-04 // azi =      60 ele =        42 
8.239e-04 // azi =      60 ele =        45 
7.421e-04 // azi =      60 ele =        48 
7.393e-04 // azi =      60 ele =        51 
8.039e-04 // azi =      60 ele =        54 
8.130e-04 // azi =      60 ele =        57 
8.885e-04 // azi =      60 ele =        60 
8.856e-04 // azi =      60 ele =        63 
8.888e-04 // azi =      60 ele =        66 
8.896e-04 // azi =      60 ele =        69 
8.858e-04 // azi =      60 ele =        72 
8.818e-04 // azi =      60 ele =        75 
8.765e-04 // azi =      60 ele =        78 
8.548e-04 // azi =      60 ele =        81 
8.236e-04 // azi =      60 ele =        84 
7.772e-04 // azi =      60 ele =        87 
7.035e-04 // azi =      60 ele =        90 
1.208e-03 // azi =      64 ele =         0 
1.211e-03 // azi =      64 ele =         3 
1.216e-03 // azi =      64 ele =         6 
1.221e-03 // azi =      64 ele =         9 
1.185e-03 // azi =      64 ele =        12 
1.181e-03 // azi =      64 ele =        15 
1.173e-03 // azi =      64 ele =        18 
1.103e-03 // azi =      64 ele =        21 
1.018e-03 // azi =      64 ele =        24 
1.010e-03 // azi =      64 ele =        27 
9.064e-04 // azi =      64 ele =        30 
9.084e-04 // azi =      64 ele =        33 
8.859e-04 // azi =      64 ele =        36 
8.497e-04 // azi =      64 ele =        39 
8.404e-04 // azi =      64 ele =        42 
8.299e-04 // azi =      64 ele =        45 
8.116e-04 // azi =      64 ele =        48 
8.054e-04 // azi =      64 ele =        51 
7.474e-04 // azi =      64 ele =        54 
8.067e-04 // azi =      64 ele =        57 
8.025e-04 // azi =      64 ele =        60 
8.596e-04 // azi =      64 ele =        63 
8.539e-04 // azi =      64 ele =        66 
8.525e-04 // azi =      64 ele =        69 
8.593e-04 // azi =      64 ele =        72 
8.663e-04 // azi =      64 ele =        75 
7.883e-04 // azi =      64 ele =        78 
7.772e-04 // azi =      64 ele =        81 
7.617e-04 // azi =      64 ele =        84 
7.391e-04 // azi =      64 ele =        87 
7.035e-04 // azi =      64 ele =        90 
1.161e-03 // azi =      68 ele =         0 
1.165e-03 // azi =      68 ele =         3 
1.138e-03 // azi =      68 ele =         6 
1.141e-03 // azi =      68 ele =         9 
1.201e-03 // azi =      68 ele =        12 
1.196e-03 // azi =      68 ele =        15 
1.107e-03 // azi =      68 ele =        18 
1.086e-03 // azi =      68 ele =        21 
1.047e-03 // azi =      68 ele =        24 
1.035e-03 // azi =      68 ele =        27 
1.020e-03 // azi =      68 ele =        30 
9.217e-04 // azi =      68 ele =        33 
9.203e-04 // azi =      68 ele =        36 
9.132e-04 // azi =      68 ele =        39 
8.408e-04 // azi =      68 ele =        42 
8.247e-04 // azi =      68 ele =        45 
8.118e-04 // azi =      68 ele =        48 
8.043e-04 // azi =      68 ele =        51 
7.493e-04 // azi =      68 ele =        54 
7.345e-04 // azi =      68 ele =        57 
7.895e-04 // azi =      68 ele =        60 
7.855e-04 // azi =      68 ele =        63 
8.188e-04 // azi =      68 ele =        66 
8.147e-04 // azi =      68 ele =        69 
8.338e-04 // azi =      68 ele =        72 
8.514e-04 // azi =      68 ele =        75 
7.831e-04 // azi =      68 ele =        78 
7.749e-04 // azi =      68 ele =        81 
7.608e-04 // azi =      68 ele =        84 
7.389e-04 // azi =      68 ele =        87 
7.035e-04 // azi =      68 ele =        90 
1.216e-03 // azi =      72 ele =         0 
1.215e-03 // azi =      72 ele =         3 
1.221e-03 // azi =      72 ele =         6 
1.151e-03 // azi =      72 ele =         9 
1.214e-03 // azi =      72 ele =        12 
1.212e-03 // azi =      72 ele =        15 
1.190e-03 // azi =      72 ele =        18 
1.083e-03 // azi =      72 ele =        21 
1.031e-03 // azi =      72 ele =        24 
1.018e-03 // azi =      72 ele =        27 
1.009e-03 // azi =      72 ele =        30 
9.313e-04 // azi =      72 ele =        33 
9.336e-04 // azi =      72 ele =        36 
9.234e-04 // azi =      72 ele =        39 
8.831e-04 // azi =      72 ele =        42 
8.572e-04 // azi =      72 ele =        45 
8.063e-04 // azi =      72 ele =        48 
7.977e-04 // azi =      72 ele =        51 
7.444e-04 // azi =      72 ele =        54 
7.363e-04 // azi =      72 ele =        57 
7.788e-04 // azi =      72 ele =        60 
7.699e-04 // azi =      72 ele =        63 
7.845e-04 // azi =      72 ele =        66 
7.753e-04 // azi =      72 ele =        69 
8.110e-04 // azi =      72 ele =        72 
8.378e-04 // azi =      72 ele =        75 
7.782e-04 // azi =      72 ele =        78 
7.726e-04 // azi =      72 ele =        81 
7.599e-04 // azi =      72 ele =        84 
7.387e-04 // azi =      72 ele =        87 
7.035e-04 // azi =      72 ele =        90 
1.204e-03 // azi =      76 ele =         0 
1.189e-03 // azi =      76 ele =         3 
1.189e-03 // azi =      76 ele =         6 
1.229e-03 // azi =      76 ele =         9 
1.239e-03 // azi =      76 ele =        12 
1.261e-03 // azi =      76 ele =        15 
1.214e-03 // azi =      76 ele =        18 
1.116e-03 // azi =      76 ele =        21 
9.834e-04 // azi =      76 ele =        24 
9.841e-04 // azi =      76 ele =        27 
9.564e-04 // azi =      76 ele =        30 
9.713e-04 // azi =      76 ele =        33 
9.622e-04 // azi =      76 ele =        36 
9.383e-04 // azi =      76 ele =        39 
8.872e-04 // azi =      76 ele =        42 
8.524e-04 // azi =      76 ele =        45 
8.139e-04 // azi =      76 ele =        48 
7.783e-04 // azi =      76 ele =        51 
7.478e-04 // azi =      76 ele =        54 
7.381e-04 // azi =      76 ele =        57 
7.273e-04 // azi =      76 ele =        60 
7.584e-04 // azi =      76 ele =        63 
7.327e-04 // azi =      76 ele =        66 
7.363e-04 // azi =      76 ele =        69 
7.933e-04 // azi =      76 ele =        72 
8.264e-04 // azi =      76 ele =        75 
7.738e-04 // azi =      76 ele =        78 
7.704e-04 // azi =      76 ele =        81 
7.590e-04 // azi =      76 ele =        84 
7.385e-04 // azi =      76 ele =        87 
7.035e-04 // azi =      76 ele =        90 
1.202e-03 // azi =      80 ele =         0 
1.189e-03 // azi =      80 ele =         3 
1.190e-03 // azi =      80 ele =         6 
1.231e-03 // azi =      80 ele =         9 
1.271e-03 // azi =      80 ele =        12 
1.268e-03 // azi =      80 ele =        15 
1.206e-03 // azi =      80 ele =        18 
1.124e-03 // azi =      80 ele =        21 
9.845e-04 // azi =      80 ele =        24 
9.854e-04 // azi =      80 ele =        27 
9.590e-04 // azi =      80 ele =        30 
9.719e-04 // azi =      80 ele =        33 
9.820e-04 // azi =      80 ele =        36 
9.243e-04 // azi =      80 ele =        39 
8.874e-04 // azi =      80 ele =        42 
8.520e-04 // azi =      80 ele =        45 
8.141e-04 // azi =      80 ele =        48 
7.973e-04 // azi =      80 ele =        51 
7.499e-04 // azi =      80 ele =        54 
7.396e-04 // azi =      80 ele =        57 
7.279e-04 // azi =      80 ele =        60 
7.154e-04 // azi =      80 ele =        63 
7.271e-04 // azi =      80 ele =        66 
7.301e-04 // azi =      80 ele =        69 
7.821e-04 // azi =      80 ele =        72 
7.622e-04 // azi =      80 ele =        75 
7.699e-04 // azi =      80 ele =        78 
7.683e-04 // azi =      80 ele =        81 
7.581e-04 // azi =      80 ele =        84 
7.382e-04 // azi =      80 ele =        87 
7.035e-04 // azi =      80 ele =        90 
1.202e-03 // azi =      84 ele =         0 
1.201e-03 // azi =      84 ele =         3 
1.212e-03 // azi =      84 ele =         6 
1.240e-03 // azi =      84 ele =         9 
1.275e-03 // azi =      84 ele =        12 
1.246e-03 // azi =      84 ele =        15 
1.209e-03 // azi =      84 ele =        18 
1.153e-03 // azi =      84 ele =        21 
1.106e-03 // azi =      84 ele =        24 
9.639e-04 // azi =      84 ele =        27 
9.667e-04 // azi =      84 ele =        30 
9.698e-04 // azi =      84 ele =        33 
9.718e-04 // azi =      84 ele =        36 
9.125e-04 // azi =      84 ele =        39 
8.852e-04 // azi =      84 ele =        42 
8.541e-04 // azi =      84 ele =        45 
8.271e-04 // azi =      84 ele =        48 
8.160e-04 // azi =      84 ele =        51 
7.519e-04 // azi =      84 ele =        54 
7.408e-04 // azi =      84 ele =        57 
7.286e-04 // azi =      84 ele =        60 
7.162e-04 // azi =      84 ele =        63 
7.288e-04 // azi =      84 ele =        66 
7.408e-04 // azi =      84 ele =        69 
7.760e-04 // azi =      84 ele =        72 
7.578e-04 // azi =      84 ele =        75 