FoamFile
{
    version     2.0;
    format      ascii;
    class       dictionary;
    location    "constant";
    object      LookupTableInjection;
}
avgVelMag
List<scalar>
 2790
(
4.691e+00 // azi =       0 ele =         0 
4.308e+00 // azi =       0 ele =         3 
4.251e+00 // azi =       0 ele =         6 
4.596e+00 // azi =       0 ele =         9 
4.914e+00 // azi =       0 ele =        12 
5.388e+00 // azi =       0 ele =        15 
4.980e+00 // azi =       0 ele =        18 
4.842e+00 // azi =       0 ele =        21 
4.808e+00 // azi =       0 ele =        24 
4.785e+00 // azi =       0 ele =        27 
4.879e+00 // azi =       0 ele =        30 
4.852e+00 // azi =       0 ele =        33 
4.749e+00 // azi =       0 ele =        36 
4.897e+00 // azi =       0 ele =        39 
5.198e+00 // azi =       0 ele =        42 
5.350e+00 // azi =       0 ele =        45 
5.691e+00 // azi =       0 ele =        48 
5.714e+00 // azi =       0 ele =        51 
5.813e+00 // azi =       0 ele =        54 
5.886e+00 // azi =       0 ele =        57 
6.424e+00 // azi =       0 ele =        60 
6.565e+00 // azi =       0 ele =        63 
6.724e+00 // azi =       0 ele =        66 
6.801e+00 // azi =       0 ele =        69 
6.527e+00 // azi =       0 ele =        72 
6.358e+00 // azi =       0 ele =        75 
6.187e+00 // azi =       0 ele =        78 
5.974e+00 // azi =       0 ele =        81 
5.683e+00 // azi =       0 ele =        84 
5.267e+00 // azi =       0 ele =        87 
4.655e+00 // azi =       0 ele =        90 
4.805e+00 // azi =       4 ele =         0 
4.703e+00 // azi =       4 ele =         3 
4.711e+00 // azi =       4 ele =         6 
4.636e+00 // azi =       4 ele =         9 
4.813e+00 // azi =       4 ele =        12 
4.919e+00 // azi =       4 ele =        15 
4.886e+00 // azi =       4 ele =        18 
4.823e+00 // azi =       4 ele =        21 
4.790e+00 // azi =       4 ele =        24 
4.768e+00 // azi =       4 ele =        27 
4.893e+00 // azi =       4 ele =        30 
4.880e+00 // azi =       4 ele =        33 
4.875e+00 // azi =       4 ele =        36 
5.086e+00 // azi =       4 ele =        39 
5.231e+00 // azi =       4 ele =        42 
5.376e+00 // azi =       4 ele =        45 
5.707e+00 // azi =       4 ele =        48 
5.753e+00 // azi =       4 ele =        51 
5.838e+00 // azi =       4 ele =        54 
6.196e+00 // azi =       4 ele =        57 
6.434e+00 // azi =       4 ele =        60 
6.563e+00 // azi =       4 ele =        63 
6.695e+00 // azi =       4 ele =        66 
6.751e+00 // azi =       4 ele =        69 
6.520e+00 // azi =       4 ele =        72 
6.365e+00 // azi =       4 ele =        75 
6.198e+00 // azi =       4 ele =        78 
5.983e+00 // azi =       4 ele =        81 
5.689e+00 // azi =       4 ele =        84 
5.269e+00 // azi =       4 ele =        87 
4.655e+00 // azi =       4 ele =        90 
4.985e+00 // azi =       8 ele =         0 
4.950e+00 // azi =       8 ele =         3 
4.957e+00 // azi =       8 ele =         6 
5.005e+00 // azi =       8 ele =         9 
4.740e+00 // azi =       8 ele =        12 
4.789e+00 // azi =       8 ele =        15 
4.798e+00 // azi =       8 ele =        18 
4.785e+00 // azi =       8 ele =        21 
4.767e+00 // azi =       8 ele =        24 
4.750e+00 // azi =       8 ele =        27 
4.918e+00 // azi =       8 ele =        30 
4.917e+00 // azi =       8 ele =        33 
5.075e+00 // azi =       8 ele =        36 
5.123e+00 // azi =       8 ele =        39 
5.291e+00 // azi =       8 ele =        42 
5.397e+00 // azi =       8 ele =        45 
5.748e+00 // azi =       8 ele =        48 
5.807e+00 // azi =       8 ele =        51 
6.134e+00 // azi =       8 ele =        54 
6.227e+00 // azi =       8 ele =        57 
6.448e+00 // azi =       8 ele =        60 
6.555e+00 // azi =       8 ele =        63 
6.650e+00 // azi =       8 ele =        66 
6.691e+00 // azi =       8 ele =        69 
6.500e+00 // azi =       8 ele =        72 
6.367e+00 // azi =       8 ele =        75 
6.206e+00 // azi =       8 ele =        78 
5.992e+00 // azi =       8 ele =        81 
5.694e+00 // azi =       8 ele =        84 
5.271e+00 // azi =       8 ele =        87 
4.655e+00 // azi =       8 ele =        90 
5.594e+00 // azi =      12 ele =         0 
5.574e+00 // azi =      12 ele =         3 
5.142e+00 // azi =      12 ele =         6 
5.150e+00 // azi =      12 ele =         9 
5.170e+00 // azi =      12 ele =        12 
5.197e+00 // azi =      12 ele =        15 
4.751e+00 // azi =      12 ele =        18 
4.751e+00 // azi =      12 ele =        21 
5.321e+00 // azi =      12 ele =        24 
5.299e+00 // azi =      12 ele =        27 
5.073e+00 // azi =      12 ele =        30 
5.143e+00 // azi =      12 ele =        33 
5.166e+00 // azi =      12 ele =        36 
5.200e+00 // azi =      12 ele =        39 
5.615e+00 // azi =      12 ele =        42 
5.669e+00 // azi =      12 ele =        45 
5.715e+00 // azi =      12 ele =        48 
5.871e+00 // azi =      12 ele =        51 
6.201e+00 // azi =      12 ele =        54 
6.259e+00 // azi =      12 ele =        57 
6.327e+00 // azi =      12 ele =        60 
6.549e+00 // azi =      12 ele =        63 
6.615e+00 // azi =      12 ele =        66 
6.648e+00 // azi =      12 ele =        69 
6.479e+00 // azi =      12 ele =        72 
6.367e+00 // azi =      12 ele =        75 
6.213e+00 // azi =      12 ele =        78 
5.998e+00 // azi =      12 ele =        81 
5.698e+00 // azi =      12 ele =        84 
5.272e+00 // azi =      12 ele =        87 
4.655e+00 // azi =      12 ele =        90 
5.835e+00 // azi =      16 ele =         0 
5.837e+00 // azi =      16 ele =         3 
5.845e+00 // azi =      16 ele =         6 
5.859e+00 // azi =      16 ele =         9 
5.876e+00 // azi =      16 ele =        12 
5.339e+00 // azi =      16 ele =        15 
6.027e+00 // azi =      16 ele =        18 
6.019e+00 // azi =      16 ele =        21 
5.477e+00 // azi =      16 ele =        24 
5.626e+00 // azi =      16 ele =        27 
5.608e+00 // azi =      16 ele =        30 
5.591e+00 // azi =      16 ele =        33 
5.257e+00 // azi =      16 ele =        36 
5.679e+00 // azi =      16 ele =        39 
5.715e+00 // azi =      16 ele =        42 
5.757e+00 // azi =      16 ele =        45 
5.795e+00 // azi =      16 ele =        48 
6.661e+00 // azi =      16 ele =        51 
6.256e+00 // azi =      16 ele =        54 
6.289e+00 // azi =      16 ele =        57 
6.332e+00 // azi =      16 ele =        60 
6.548e+00 // azi =      16 ele =        63 
6.593e+00 // azi =      16 ele =        66 
6.619e+00 // azi =      16 ele =        69 
6.463e+00 // azi =      16 ele =        72 
6.368e+00 // azi =      16 ele =        75 
6.219e+00 // azi =      16 ele =        78 
6.004e+00 // azi =      16 ele =        81 
5.701e+00 // azi =      16 ele =        84 
5.273e+00 // azi =      16 ele =        87 
4.655e+00 // azi =      16 ele =        90 
6.065e+00 // azi =      20 ele =         0 
6.087e+00 // azi =      20 ele =         3 
6.104e+00 // azi =      20 ele =         6 
6.115e+00 // azi =      20 ele =         9 
6.713e+00 // azi =      20 ele =        12 
6.711e+00 // azi =      20 ele =        15 
6.711e+00 // azi =      20 ele =        18 
6.335e+00 // azi =      20 ele =        21 
6.312e+00 // azi =      20 ele =        24 
6.283e+00 // azi =      20 ele =        27 
5.793e+00 // azi =      20 ele =        30 
5.763e+00 // azi =      20 ele =        33 
6.047e+00 // azi =      20 ele =        36 
5.778e+00 // azi =      20 ele =        39 
5.811e+00 // azi =      20 ele =        42 
6.590e+00 // azi =      20 ele =        45 
6.615e+00 // azi =      20 ele =        48 
6.636e+00 // azi =      20 ele =        51 
6.660e+00 // azi =      20 ele =        54 
6.315e+00 // azi =      20 ele =        57 
6.678e+00 // azi =      20 ele =        60 
6.682e+00 // azi =      20 ele =        63 
6.677e+00 // azi =      20 ele =        66 
6.680e+00 // azi =      20 ele =        69 
6.455e+00 // azi =      20 ele =        72 
6.371e+00 // azi =      20 ele =        75 
6.224e+00 // azi =      20 ele =        78 
6.008e+00 // azi =      20 ele =        81 
5.704e+00 // azi =      20 ele =        84 
5.274e+00 // azi =      20 ele =        87 
4.655e+00 // azi =      20 ele =        90 
6.479e+00 // azi =      24 ele =         0 
7.020e+00 // azi =      24 ele =         3 
6.976e+00 // azi =      24 ele =         6 
6.975e+00 // azi =      24 ele =         9 
7.093e+00 // azi =      24 ele =        12 
7.089e+00 // azi =      24 ele =        15 
6.833e+00 // azi =      24 ele =        18 
6.808e+00 // azi =      24 ele =        21 
6.989e+00 // azi =      24 ele =        24 
6.946e+00 // azi =      24 ele =        27 
6.972e+00 // azi =      24 ele =        30 
6.852e+00 // azi =      24 ele =        33 
6.818e+00 // azi =      24 ele =        36 
6.812e+00 // azi =      24 ele =        39 
7.110e+00 // azi =      24 ele =        42 
6.650e+00 // azi =      24 ele =        45 
6.691e+00 // azi =      24 ele =        48 
6.720e+00 // azi =      24 ele =        51 
6.741e+00 // azi =      24 ele =        54 
6.992e+00 // azi =      24 ele =        57 
6.669e+00 // azi =      24 ele =        60 
6.668e+00 // azi =      24 ele =        63 
6.646e+00 // azi =      24 ele =        66 
6.609e+00 // azi =      24 ele =        69 
6.456e+00 // azi =      24 ele =        72 
6.377e+00 // azi =      24 ele =        75 
6.229e+00 // azi =      24 ele =        78 
6.011e+00 // azi =      24 ele =        81 
5.705e+00 // azi =      24 ele =        84 
5.274e+00 // azi =      24 ele =        87 
4.655e+00 // azi =      24 ele =        90 
7.025e+00 // azi =      28 ele =         0 
7.040e+00 // azi =      28 ele =         3 
7.042e+00 // azi =      28 ele =         6 
6.991e+00 // azi =      28 ele =         9 
7.091e+00 // azi =      28 ele =        12 
7.086e+00 // azi =      28 ele =        15 
7.085e+00 // azi =      28 ele =        18 
7.043e+00 // azi =      28 ele =        21 
7.026e+00 // azi =      28 ele =        24 
6.973e+00 // azi =      28 ele =        27 
7.151e+00 // azi =      28 ele =        30 
7.037e+00 // azi =      28 ele =        33 
6.727e+00 // azi =      28 ele =        36 
6.752e+00 // azi =      28 ele =        39 
7.079e+00 // azi =      28 ele =        42 
7.124e+00 // azi =      28 ele =        45 
7.100e+00 // azi =      28 ele =        48 
6.814e+00 // azi =      28 ele =        51 
7.011e+00 // azi =      28 ele =        54 
7.009e+00 // azi =      28 ele =        57 
6.956e+00 // azi =      28 ele =        60 
6.660e+00 // azi =      28 ele =        63 
6.609e+00 // azi =      28 ele =        66 
6.560e+00 // azi =      28 ele =        69 
6.633e+00 // azi =      28 ele =        72 
6.385e+00 // azi =      28 ele =        75 
6.233e+00 // azi =      28 ele =        78 
6.013e+00 // azi =      28 ele =        81 
5.706e+00 // azi =      28 ele =        84 
5.274e+00 // azi =      28 ele =        87 
4.655e+00 // azi =      28 ele =        90 
7.036e+00 // azi =      32 ele =         0 
7.086e+00 // azi =      32 ele =         3 
7.100e+00 // azi =      32 ele =         6 
7.046e+00 // azi =      32 ele =         9 
7.088e+00 // azi =      32 ele =        12 
7.076e+00 // azi =      32 ele =        15 
7.081e+00 // azi =      32 ele =        18 
7.246e+00 // azi =      32 ele =        21 
7.094e+00 // azi =      32 ele =        24 
7.041e+00 // azi =      32 ele =        27 
7.148e+00 // azi =      32 ele =        30 
6.904e+00 // azi =      32 ele =        33 
6.452e+00 // azi =      32 ele =        36 
6.669e+00 // azi =      32 ele =        39 
7.085e+00 // azi =      32 ele =        42 
7.143e+00 // azi =      32 ele =        45 
7.019e+00 // azi =      32 ele =        48 
6.781e+00 // azi =      32 ele =        51 
7.029e+00 // azi =      32 ele =        54 
7.043e+00 // azi =      32 ele =        57 
6.977e+00 // azi =      32 ele =        60 
6.666e+00 // azi =      32 ele =        63 
6.580e+00 // azi =      32 ele =        66 
6.493e+00 // azi =      32 ele =        69 
6.637e+00 // azi =      32 ele =        72 
6.395e+00 // azi =      32 ele =        75 
6.236e+00 // azi =      32 ele =        78 
6.013e+00 // azi =      32 ele =        81 
5.706e+00 // azi =      32 ele =        84 
5.274e+00 // azi =      32 ele =        87 
4.655e+00 // azi =      32 ele =        90 
7.006e+00 // azi =      36 ele =         0 
7.057e+00 // azi =      36 ele =         3 
7.075e+00 // azi =      36 ele =         6 
7.025e+00 // azi =      36 ele =         9 
7.018e+00 // azi =      36 ele =        12 
7.082e+00 // azi =      36 ele =        15 
7.235e+00 // azi =      36 ele =        18 
7.284e+00 // azi =      36 ele =        21 
7.141e+00 // azi =      36 ele =        24 
7.296e+00 // azi =      36 ele =        27 
7.252e+00 // azi =      36 ele =        30 
7.030e+00 // azi =      36 ele =        33 
6.678e+00 // azi =      36 ele =        36 
6.977e+00 // azi =      36 ele =        39 
7.198e+00 // azi =      36 ele =        42 
7.251e+00 // azi =      36 ele =        45 
7.127e+00 // azi =      36 ele =        48 
7.036e+00 // azi =      36 ele =        51 
7.124e+00 // azi =      36 ele =        54 
7.101e+00 // azi =      36 ele =        57 
7.010e+00 // azi =      36 ele =        60 
6.896e+00 // azi =      36 ele =        63 
6.627e+00 // azi =      36 ele =        66 
6.539e+00 // azi =      36 ele =        69 
6.659e+00 // azi =      36 ele =        72 
6.657e+00 // azi =      36 ele =        75 
6.238e+00 // azi =      36 ele =        78 
6.012e+00 // azi =      36 ele =        81 
5.704e+00 // azi =      36 ele =        84 
5.274e+00 // azi =      36 ele =        87 
4.655e+00 // azi =      36 ele =        90 
6.923e+00 // azi =      40 ele =         0 
6.913e+00 // azi =      40 ele =         3 
6.921e+00 // azi =      40 ele =         6 
6.956e+00 // azi =      40 ele =         9 
6.999e+00 // azi =      40 ele =        12 
7.162e+00 // azi =      40 ele =        15 
7.319e+00 // azi =      40 ele =        18 
7.395e+00 // azi =      40 ele =        21 
7.469e+00 // azi =      40 ele =        24 
7.526e+00 // azi =      40 ele =        27 
7.482e+00 // azi =      40 ele =        30 
7.464e+00 // azi =      40 ele =        33 
7.473e+00 // azi =      40 ele =        36 
7.416e+00 // azi =      40 ele =        39 
7.411e+00 // azi =      40 ele =        42 
7.448e+00 // azi =      40 ele =        45 
7.516e+00 // azi =      40 ele =        48 
7.549e+00 // azi =      40 ele =        51 
7.316e+00 // azi =      40 ele =        54 
7.177e+00 // azi =      40 ele =        57 
7.051e+00 // azi =      40 ele =        60 
6.944e+00 // azi =      40 ele =        63 
6.735e+00 // azi =      40 ele =        66 
6.754e+00 // azi =      40 ele =        69 
6.695e+00 // azi =      40 ele =        72 
6.659e+00 // azi =      40 ele =        75 
6.068e+00 // azi =      40 ele =        78 
5.843e+00 // azi =      40 ele =        81 
5.561e+00 // azi =      40 ele =        84 
5.183e+00 // azi =      40 ele =        87 
4.655e+00 // azi =      40 ele =        90 
6.843e+00 // azi =      44 ele =         0 
6.742e+00 // azi =      44 ele =         3 
6.700e+00 // azi =      44 ele =         6 
6.881e+00 // azi =      44 ele =         9 
7.011e+00 // azi =      44 ele =        12 
7.196e+00 // azi =      44 ele =        15 
7.349e+00 // azi =      44 ele =        18 
7.514e+00 // azi =      44 ele =        21 
7.924e+00 // azi =      44 ele =        24 
7.910e+00 // azi =      44 ele =        27 
7.694e+00 // azi =      44 ele =        30 
7.844e+00 // azi =      44 ele =        33 
8.308e+00 // azi =      44 ele =        36 
7.809e+00 // azi =      44 ele =        39 
7.607e+00 // azi =      44 ele =        42 
7.631e+00 // azi =      44 ele =        45 
7.900e+00 // azi =      44 ele =        48 
8.096e+00 // azi =      44 ele =        51 
7.494e+00 // azi =      44 ele =        54 
7.244e+00 // azi =      44 ele =        57 
7.091e+00 // azi =      44 ele =        60 
6.993e+00 // azi =      44 ele =        63 
6.952e+00 // azi =      44 ele =        66 
6.968e+00 // azi =      44 ele =        69 
6.724e+00 // azi =      44 ele =        72 
6.268e+00 // azi =      44 ele =        75 
6.069e+00 // azi =      44 ele =        78 
5.844e+00 // azi =      44 ele =        81 
5.562e+00 // azi =      44 ele =        84 
5.183e+00 // azi =      44 ele =        87 
4.655e+00 // azi =      44 ele =        90 
6.838e+00 // azi =      48 ele =         0 
6.783e+00 // azi =      48 ele =         3 
6.784e+00 // azi =      48 ele =         6 
6.883e+00 // azi =      48 ele =         9 
7.102e+00 // azi =      48 ele =        12 
7.190e+00 // azi =      48 ele =        15 
7.275e+00 // azi =      48 ele =        18 
7.521e+00 // azi =      48 ele =        21 
7.855e+00 // azi =      48 ele =        24 
7.897e+00 // azi =      48 ele =        27 
7.759e+00 // azi =      48 ele =        30 
7.875e+00 // azi =      48 ele =        33 
8.152e+00 // azi =      48 ele =        36 
8.027e+00 // azi =      48 ele =        39 
7.692e+00 // azi =      48 ele =        42 
7.707e+00 // azi =      48 ele =        45 
7.892e+00 // azi =      48 ele =        48 
8.058e+00 // azi =      48 ele =        51 
7.520e+00 // azi =      48 ele =        54 
7.274e+00 // azi =      48 ele =        57 
7.120e+00 // azi =      48 ele =        60 
6.944e+00 // azi =      48 ele =        63 
6.966e+00 // azi =      48 ele =        66 
6.769e+00 // azi =      48 ele =        69 
6.419e+00 // azi =      48 ele =        72 
6.239e+00 // azi =      48 ele =        75 
6.065e+00 // azi =      48 ele =        78 
5.843e+00 // azi =      48 ele =        81 
5.562e+00 // azi =      48 ele =        84 
5.184e+00 // azi =      48 ele =        87 
4.655e+00 // azi =      48 ele =        90 
6.874e+00 // azi =      52 ele =         0 
6.864e+00 // azi =      52 ele =         3 
6.875e+00 // azi =      52 ele =         6 
7.052e+00 // azi =      52 ele =         9 
7.113e+00 // azi =      52 ele =        12 
7.187e+00 // azi =      52 ele =        15 
7.263e+00 // azi =      52 ele =        18 
7.708e+00 // azi =      52 ele =        21 
7.788e+00 // azi =      52 ele =        24 
7.849e+00 // azi =      52 ele =        27 
7.706e+00 // azi =      52 ele =        30 
7.775e+00 // azi =      52 ele =        33 
7.972e+00 // azi =      52 ele =        36 
7.956e+00 // azi =      52 ele =        39 
7.692e+00 // azi =      52 ele =        42 
7.701e+00 // azi =      52 ele =        45 
7.954e+00 // azi =      52 ele =        48 
7.949e+00 // azi =      52 ele =        51 
7.442e+00 // azi =      52 ele =        54 
7.269e+00 // azi =      52 ele =        57 
7.027e+00 // azi =      52 ele =        60 
6.932e+00 // azi =      52 ele =        63 
6.497e+00 // azi =      52 ele =        66 
6.546e+00 // azi =      52 ele =        69 
6.349e+00 // azi =      52 ele =        72 
6.198e+00 // azi =      52 ele =        75 
6.057e+00 // azi =      52 ele =        78 
5.840e+00 // azi =      52 ele =        81 
5.561e+00 // azi =      52 ele =        84 
5.183e+00 // azi =      52 ele =        87 
4.655e+00 // azi =      52 ele =        90 
6.775e+00 // azi =      56 ele =         0 
6.780e+00 // azi =      56 ele =         3 
6.907e+00 // azi =      56 ele =         6 
6.951e+00 // azi =      56 ele =         9 
7.108e+00 // azi =      56 ele =        12 
7.162e+00 // azi =      56 ele =        15 
7.451e+00 // azi =      56 ele =        18 
7.537e+00 // azi =      56 ele =        21 
7.741e+00 // azi =      56 ele =        24 
7.791e+00 // azi =      56 ele =        27 
7.907e+00 // azi =      56 ele =        30 
7.755e+00 // azi =      56 ele =        33 
8.175e+00 // azi =      56 ele =        36 
7.911e+00 // azi =      56 ele =        39 
7.912e+00 // azi =      56 ele =        42 
7.889e+00 // azi =      56 ele =        45 
7.880e+00 // azi =      56 ele =        48 
7.864e+00 // azi =      56 ele =        51 
7.570e+00 // azi =      56 ele =        54 
7.493e+00 // azi =      56 ele =        57 
6.988e+00 // azi =      56 ele =        60 
6.898e+00 // azi =      56 ele =        63 
6.337e+00 // azi =      56 ele =        66 
6.358e+00 // azi =      56 ele =        69 
6.253e+00 // azi =      56 ele =        72 
6.145e+00 // azi =      56 ele =        75 
6.046e+00 // azi =      56 ele =        78 
5.835e+00 // azi =      56 ele =        81 
5.559e+00 // azi =      56 ele =        84 
5.183e+00 // azi =      56 ele =        87 
4.655e+00 // azi =      56 ele =        90 
6.693e+00 // azi =      60 ele =         0 
6.702e+00 // azi =      60 ele =         3 
6.715e+00 // azi =      60 ele =         6 
6.730e+00 // azi =      60 ele =         9 
6.747e+00 // azi =      60 ele =        12 
7.143e+00 // azi =      60 ele =        15 
7.294e+00 // azi =      60 ele =        18 
7.311e+00 // azi =      60 ele =        21 
7.678e+00 // azi =      60 ele =        24 
7.789e+00 // azi =      60 ele =        27 
7.808e+00 // azi =      60 ele =        30 
7.827e+00 // azi =      60 ele =        33 
8.097e+00 // azi =      60 ele =        36 
7.981e+00 // azi =      60 ele =        39 
7.975e+00 // azi =      60 ele =        42 
7.970e+00 // azi =      60 ele =        45 
7.817e+00 // azi =      60 ele =        48 
7.799e+00 // azi =      60 ele =        51 
7.374e+00 // azi =      60 ele =        54 
7.273e+00 // azi =      60 ele =        57 
6.937e+00 // azi =      60 ele =        60 
6.147e+00 // azi =      60 ele =        63 
6.190e+00 // azi =      60 ele =        66 
6.200e+00 // azi =      60 ele =        69 
6.149e+00 // azi =      60 ele =        72 
6.084e+00 // azi =      60 ele =        75 
6.031e+00 // azi =      60 ele =        78 
5.828e+00 // azi =      60 ele =        81 
5.556e+00 // azi =      60 ele =        84 
5.182e+00 // azi =      60 ele =        87 
4.655e+00 // azi =      60 ele =        90 
6.672e+00 // azi =      64 ele =         0 
6.679e+00 // azi =      64 ele =         3 
6.690e+00 // azi =      64 ele =         6 
6.705e+00 // azi =      64 ele =         9 
6.789e+00 // azi =      64 ele =        12 
6.807e+00 // azi =      64 ele =        15 
6.821e+00 // azi =      64 ele =        18 
7.232e+00 // azi =      64 ele =        21 
7.270e+00 // azi =      64 ele =        24 
7.284e+00 // azi =      64 ele =        27 
7.689e+00 // azi =      64 ele =        30 
7.709e+00 // azi =      64 ele =        33 
7.550e+00 // azi =      64 ele =        36 
7.877e+00 // azi =      64 ele =        39 
7.873e+00 // azi =      64 ele =        42 
7.868e+00 // azi =      64 ele =        45 
7.589e+00 // azi =      64 ele =        48 
7.598e+00 // azi =      64 ele =        51 
7.282e+00 // azi =      64 ele =        54 
7.207e+00 // azi =      64 ele =        57 
6.240e+00 // azi =      64 ele =        60 
6.045e+00 // azi =      64 ele =        63 
6.060e+00 // azi =      64 ele =        66 
6.063e+00 // azi =      64 ele =        69 
6.046e+00 // azi =      64 ele =        72 
6.020e+00 // azi =      64 ele =        75 
5.559e+00 // azi =      64 ele =        78 
5.409e+00 // azi =      64 ele =        81 
5.222e+00 // azi =      64 ele =        84 
4.978e+00 // azi =      64 ele =        87 
4.655e+00 // azi =      64 ele =        90 
6.428e+00 // azi =      68 ele =         0 
6.438e+00 // azi =      68 ele =         3 
6.487e+00 // azi =      68 ele =         6 
6.517e+00 // azi =      68 ele =         9 
6.597e+00 // azi =      68 ele =        12 
6.624e+00 // azi =      68 ele =        15 
6.794e+00 // azi =      68 ele =        18 
6.827e+00 // azi =      68 ele =        21 
7.041e+00 // azi =      68 ele =        24 
7.063e+00 // azi =      68 ele =        27 
7.110e+00 // azi =      68 ele =        30 
7.221e+00 // azi =      68 ele =        33 
7.242e+00 // azi =      68 ele =        36 
7.249e+00 // azi =      68 ele =        39 
7.500e+00 // azi =      68 ele =        42 
7.506e+00 // azi =      68 ele =        45 
7.509e+00 // azi =      68 ele =        48 
7.516e+00 // azi =      68 ele =        51 
7.226e+00 // azi =      68 ele =        54 
6.277e+00 // azi =      68 ele =        57 
6.191e+00 // azi =      68 ele =        60 
6.097e+00 // azi =      68 ele =        63 
5.950e+00 // azi =      68 ele =        66 
5.951e+00 // azi =      68 ele =        69 
5.949e+00 // azi =      68 ele =        72 
5.953e+00 // azi =      68 ele =        75 
5.529e+00 // azi =      68 ele =        78 
5.395e+00 // azi =      68 ele =        81 
5.217e+00 // azi =      68 ele =        84 
4.977e+00 // azi =      68 ele =        87 
4.655e+00 // azi =      68 ele =        90 
6.357e+00 // azi =      72 ele =         0 
6.371e+00 // azi =      72 ele =         3 
6.392e+00 // azi =      72 ele =         6 
6.512e+00 // azi =      72 ele =         9 
6.613e+00 // azi =      72 ele =        12 
6.657e+00 // azi =      72 ele =        15 
6.676e+00 // azi =      72 ele =        18 
6.842e+00 // azi =      72 ele =        21 
7.030e+00 // azi =      72 ele =        24 
7.057e+00 // azi =      72 ele =        27 
7.117e+00 // azi =      72 ele =        30 
7.241e+00 // azi =      72 ele =        33 
7.275e+00 // azi =      72 ele =        36 
7.275e+00 // azi =      72 ele =        39 
7.281e+00 // azi =      72 ele =        42 
7.273e+00 // azi =      72 ele =        45 
7.447e+00 // azi =      72 ele =        48 
7.450e+00 // azi =      72 ele =        51 
6.556e+00 // azi =      72 ele =        54 
6.316e+00 // azi =      72 ele =        57 
6.142e+00 // azi =      72 ele =        60 
6.013e+00 // azi =      72 ele =        63 
5.864e+00 // azi =      72 ele =        66 
5.873e+00 // azi =      72 ele =        69 
5.858e+00 // azi =      72 ele =        72 
5.888e+00 // azi =      72 ele =        75 
5.498e+00 // azi =      72 ele =        78 
5.380e+00 // azi =      72 ele =        81 
5.211e+00 // azi =      72 ele =        84 
4.976e+00 // azi =      72 ele =        87 
4.655e+00 // azi =      72 ele =        90 
6.343e+00 // azi =      76 ele =         0 
6.357e+00 // azi =      76 ele =         3 
6.373e+00 // azi =      76 ele =         6 
6.428e+00 // azi =      76 ele =         9 
6.654e+00 // azi =      76 ele =        12 
6.756e+00 // azi =      76 ele =        15 
6.721e+00 // azi =      76 ele =        18 
6.852e+00 // azi =      76 ele =        21 
7.012e+00 // azi =      76 ele =        24 
7.039e+00 // azi =      76 ele =        27 
7.178e+00 // azi =      76 ele =        30 
7.266e+00 // azi =      76 ele =        33 
7.358e+00 // azi =      76 ele =        36 
7.311e+00 // azi =      76 ele =        39 
7.282e+00 // azi =      76 ele =        42 
7.271e+00 // azi =      76 ele =        45 
7.299e+00 // azi =      76 ele =        48 
7.223e+00 // azi =      76 ele =        51 
6.651e+00 // azi =      76 ele =        54 
6.343e+00 // azi =      76 ele =        57 
6.076e+00 // azi =      76 ele =        60 
5.928e+00 // azi =      76 ele =        63 
5.866e+00 // azi =      76 ele =        66 
5.850e+00 // azi =      76 ele =        69 
5.769e+00 // azi =      76 ele =        72 
5.824e+00 // azi =      76 ele =        75 
5.467e+00 // azi =      76 ele =        78 
5.365e+00 // azi =      76 ele =        81 
5.205e+00 // azi =      76 ele =        84 
4.974e+00 // azi =      76 ele =        87 
4.655e+00 // azi =      76 ele =        90 
6.318e+00 // azi =      80 ele =         0 
6.335e+00 // azi =      80 ele =         3 
6.352e+00 // azi =      80 ele =         6 
6.398e+00 // azi =      80 ele =         9 
6.511e+00 // azi =      80 ele =        12 
6.736e+00 // azi =      80 ele =        15 
6.815e+00 // azi =      80 ele =        18 
6.839e+00 // azi =      80 ele =        21 
7.017e+00 // azi =      80 ele =        24 
7.043e+00 // azi =      80 ele =        27 
7.178e+00 // azi =      80 ele =        30 
7.262e+00 // azi =      80 ele =        33 
7.345e+00 // azi =      80 ele =        36 
7.315e+00 // azi =      80 ele =        39 
7.271e+00 // azi =      80 ele =        42 
7.257e+00 // azi =      80 ele =        45 
7.283e+00 // azi =      80 ele =        48 
7.305e+00 // azi =      80 ele =        51 
6.659e+00 // azi =      80 ele =        54 
6.343e+00 // azi =      80 ele =        57 
6.051e+00 // azi =      80 ele =        60 
5.799e+00 // azi =      80 ele =        63 
5.748e+00 // azi =      80 ele =        66 
5.747e+00 // azi =      80 ele =        69 
5.669e+00 // azi =      80 ele =        72 
5.469e+00 // azi =      80 ele =        75 
5.437e+00 // azi =      80 ele =        78 
5.350e+00 // azi =      80 ele =        81 
5.198e+00 // azi =      80 ele =        84 
4.972e+00 // azi =      80 ele =        87 
4.655e+00 // azi =      80 ele =        90 
6.268e+00 // azi =      84 ele =         0 
6.266e+00 // azi =      84 ele =         3 
6.280e+00 // azi =      84 ele =         6 
6.318e+00 // azi =      84 ele =         9 
6.366e+00 // azi =      84 ele =        12 
6.698e+00 // azi =      84 ele =        15 
6.738e+00 // azi =      84 ele =        18 
6.802e+00 // azi =      84 ele =        21 
6.859e+00 // azi =      84 ele =        24 
7.145e+00 // azi =      84 ele =        27 
7.183e+00 // azi =      84 ele =        30 
7.230e+00 // azi =      84 ele =        33 
7.263e+00 // azi =      84 ele =        36 
7.279e+00 // azi =      84 ele =        39 
7.250e+00 // azi =      84 ele =        42 
7.228e+00 // azi =      84 ele =        45 
7.216e+00 // azi =      84 ele =        48 
7.214e+00 // azi =      84 ele =        51 
6.606e+00 // azi =      84 ele =        54 
6.322e+00 // azi =      84 ele =        57 
6.018e+00 // azi =      84 ele =        60 
5.722e+00 // azi =      84 ele =        63 
5.510e+00 // azi =      84 ele =        66 
5.399e+00 // azi =      84 ele =        69 
5.556e+00 // azi =      84 ele =        72 
5.419e+00 // azi =      84 ele =        75 