FoamFile
{
    version     2.0;
    format      ascii;
    class       dictionary;
    location    "constant";
    object      LookupTableInjection;
}
azi
List<scalar>
 2790
(
0.000e+00 // azi =       0 ele =         0 
0.000e+00 // azi =       0 ele =         3 
0.000e+00 // azi =       0 ele =         6 
0.000e+00 // azi =       0 ele =         9 
0.000e+00 // azi =       0 ele =        12 
0.000e+00 // azi =       0 ele =        15 
0.000e+00 // azi =       0 ele =        18 
0.000e+00 // azi =       0 ele =        21 
0.000e+00 // azi =       0 ele =        24 
0.000e+00 // azi =       0 ele =        27 
0.000e+00 // azi =       0 ele =        30 
0.000e+00 // azi =       0 ele =        33 
0.000e+00 // azi =       0 ele =        36 
0.000e+00 // azi =       0 ele =        39 
0.000e+00 // azi =       0 ele =        42 
0.000e+00 // azi =       0 ele =        45 
0.000e+00 // azi =       0 ele =        48 
0.000e+00 // azi =       0 ele =        51 
0.000e+00 // azi =       0 ele =        54 
0.000e+00 // azi =       0 ele =        57 
0.000e+00 // azi =       0 ele =        60 
0.000e+00 // azi =       0 ele =        63 
0.000e+00 // azi =       0 ele =        66 
0.000e+00 // azi =       0 ele =        69 
0.000e+00 // azi =       0 ele =        72 
0.000e+00 // azi =       0 ele =        75 
0.000e+00 // azi =       0 ele =        78 
0.000e+00 // azi =       0 ele =        81 
0.000e+00 // azi =       0 ele =        84 
0.000e+00 // azi =       0 ele =        87 
0.000e+00 // azi =       0 ele =        90 
4.000e+00 // azi =       4 ele =         0 
4.000e+00 // azi =       4 ele =         3 
4.000e+00 // azi =       4 ele =         6 
4.000e+00 // azi =       4 ele =         9 
4.000e+00 // azi =       4 ele =        12 
4.000e+00 // azi =       4 ele =        15 
4.000e+00 // azi =       4 ele =        18 
4.000e+00 // azi =       4 ele =        21 
4.000e+00 // azi =       4 ele =        24 
4.000e+00 // azi =       4 ele =        27 
4.000e+00 // azi =       4 ele =        30 
4.000e+00 // azi =       4 ele =        33 
4.000e+00 // azi =       4 ele =        36 
4.000e+00 // azi =       4 ele =        39 
4.000e+00 // azi =       4 ele =        42 
4.000e+00 // azi =       4 ele =        45 
4.000e+00 // azi =       4 ele =        48 
4.000e+00 // azi =       4 ele =        51 
4.000e+00 // azi =       4 ele =        54 
4.000e+00 // azi =       4 ele =        57 
4.000e+00 // azi =       4 ele =        60 
4.000e+00 // azi =       4 ele =        63 
4.000e+00 // azi =       4 ele =        66 
4.000e+00 // azi =       4 ele =        69 
4.000e+00 // azi =       4 ele =        72 
4.000e+00 // azi =       4 ele =        75 
4.000e+00 // azi =       4 ele =        78 
4.000e+00 // azi =       4 ele =        81 
4.000e+00 // azi =       4 ele =        84 
4.000e+00 // azi =       4 ele =        87 
4.000e+00 // azi =       4 ele =        90 
8.000e+00 // azi =       8 ele =         0 
8.000e+00 // azi =       8 ele =         3 
8.000e+00 // azi =       8 ele =         6 
8.000e+00 // azi =       8 ele =         9 
8.000e+00 // azi =       8 ele =        12 
8.000e+00 // azi =       8 ele =        15 
8.000e+00 // azi =       8 ele =        18 
8.000e+00 // azi =       8 ele =        21 
8.000e+00 // azi =       8 ele =        24 
8.000e+00 // azi =       8 ele =        27 
8.000e+00 // azi =       8 ele =        30 
8.000e+00 // azi =       8 ele =        33 
8.000e+00 // azi =       8 ele =        36 
8.000e+00 // azi =       8 ele =        39 
8.000e+00 // azi =       8 ele =        42 
8.000e+00 // azi =       8 ele =        45 
8.000e+00 // azi =       8 ele =        48 
8.000e+00 // azi =       8 ele =        51 
8.000e+00 // azi =       8 ele =        54 
8.000e+00 // azi =       8 ele =        57 
8.000e+00 // azi =       8 ele =        60 
8.000e+00 // azi =       8 ele =        63 
8.000e+00 // azi =       8 ele =        66 
8.000e+00 // azi =       8 ele =        69 
8.000e+00 // azi =       8 ele =        72 
8.000e+00 // azi =       8 ele =        75 
8.000e+00 // azi =       8 ele =        78 
8.000e+00 // azi =       8 ele =        81 
8.000e+00 // azi =       8 ele =        84 
8.000e+00 // azi =       8 ele =        87 
8.000e+00 // azi =       8 ele =        90 
1.200e+01 // azi =      12 ele =         0 
1.200e+01 // azi =      12 ele =         3 
1.200e+01 // azi =      12 ele =         6 
1.200e+01 // azi =      12 ele =         9 
1.200e+01 // azi =      12 ele =        12 
1.200e+01 // azi =      12 ele =        15 
1.200e+01 // azi =      12 ele =        18 
1.200e+01 // azi =      12 ele =        21 
1.200e+01 // azi =      12 ele =        24 
1.200e+01 // azi =      12 ele =        27 
1.200e+01 // azi =      12 ele =        30 
1.200e+01 // azi =      12 ele =        33 
1.200e+01 // azi =      12 ele =        36 
1.200e+01 // azi =      12 ele =        39 
1.200e+01 // azi =      12 ele =        42 
1.200e+01 // azi =      12 ele =        45 
1.200e+01 // azi =      12 ele =        48 
1.200e+01 // azi =      12 ele =        51 
1.200e+01 // azi =      12 ele =        54 
1.200e+01 // azi =      12 ele =        57 
1.200e+01 // azi =      12 ele =        60 
1.200e+01 // azi =      12 ele =        63 
1.200e+01 // azi =      12 ele =        66 
1.200e+01 // azi =      12 ele =        69 
1.200e+01 // azi =      12 ele =        72 
1.200e+01 // azi =      12 ele =        75 
1.200e+01 // azi =      12 ele =        78 
1.200e+01 // azi =      12 ele =        81 
1.200e+01 // azi =      12 ele =        84 
1.200e+01 // azi =      12 ele =        87 
1.200e+01 // azi =      12 ele =        90 
1.600e+01 // azi =      16 ele =         0 
1.600e+01 // azi =      16 ele =         3 
1.600e+01 // azi =      16 ele =         6 
1.600e+01 // azi =      16 ele =         9 
1.600e+01 // azi =      16 ele =        12 
1.600e+01 // azi =      16 ele =        15 
1.600e+01 // azi =      16 ele =        18 
1.600e+01 // azi =      16 ele =        21 
1.600e+01 // azi =      16 ele =        24 
1.600e+01 // azi =      16 ele =        27 
1.600e+01 // azi =      16 ele =        30 
1.600e+01 // azi =      16 ele =        33 
1.600e+01 // azi =      16 ele =        36 
1.600e+01 // azi =      16 ele =        39 
1.600e+01 // azi =      16 ele =        42 
1.600e+01 // azi =      16 ele =        45 
1.600e+01 // azi =      16 ele =        48 
1.600e+01 // azi =      16 ele =        51 
1.600e+01 // azi =      16 ele =        54 
1.600e+01 // azi =      16 ele =        57 
1.600e+01 // azi =      16 ele =        60 
1.600e+01 // azi =      16 ele =        63 
1.600e+01 // azi =      16 ele =        66 
1.600e+01 // azi =      16 ele =        69 
1.600e+01 // azi =      16 ele =        72 
1.600e+01 // azi =      16 ele =        75 
1.600e+01 // azi =      16 ele =        78 
1.600e+01 // azi =      16 ele =        81 
1.600e+01 // azi =      16 ele =        84 
1.600e+01 // azi =      16 ele =        87 
1.600e+01 // azi =      16 ele =        90 
2.000e+01 // azi =      20 ele =         0 
2.000e+01 // azi =      20 ele =         3 
2.000e+01 // azi =      20 ele =         6 
2.000e+01 // azi =      20 ele =         9 
2.000e+01 // azi =      20 ele =        12 
2.000e+01 // azi =      20 ele =        15 
2.000e+01 // azi =      20 ele =        18 
2.000e+01 // azi =      20 ele =        21 
2.000e+01 // azi =      20 ele =        24 
2.000e+01 // azi =      20 ele =        27 
2.000e+01 // azi =      20 ele =        30 
2.000e+01 // azi =      20 ele =        33 
2.000e+01 // azi =      20 ele =        36 
2.000e+01 // azi =      20 ele =        39 
2.000e+01 // azi =      20 ele =        42 
2.000e+01 // azi =      20 ele =        45 
2.000e+01 // azi =      20 ele =        48 
2.000e+01 // azi =      20 ele =        51 
2.000e+01 // azi =      20 ele =        54 
2.000e+01 // azi =      20 ele =        57 
2.000e+01 // azi =      20 ele =        60 
2.000e+01 // azi =      20 ele =        63 
2.000e+01 // azi =      20 ele =        66 
2.000e+01 // azi =      20 ele =        69 
2.000e+01 // azi =      20 ele =        72 
2.000e+01 // azi =      20 ele =        75 
2.000e+01 // azi =      20 ele =        78 
2.000e+01 // azi =      20 ele =        81 
2.000e+01 // azi =      20 ele =        84 
2.000e+01 // azi =      20 ele =        87 
2.000e+01 // azi =      20 ele =        90 
2.400e+01 // azi =      24 ele =         0 
2.400e+01 // azi =      24 ele =         3 
2.400e+01 // azi =      24 ele =         6 
2.400e+01 // azi =      24 ele =         9 
2.400e+01 // azi =      24 ele =        12 
2.400e+01 // azi =      24 ele =        15 
2.400e+01 // azi =      24 ele =        18 
2.400e+01 // azi =      24 ele =        21 
2.400e+01 // azi =      24 ele =        24 
2.400e+01 // azi =      24 ele =        27 
2.400e+01 // azi =      24 ele =        30 
2.400e+01 // azi =      24 ele =        33 
2.400e+01 // azi =      24 ele =        36 
2.400e+01 // azi =      24 ele =        39 
2.400e+01 // azi =      24 ele =        42 
2.400e+01 // azi =      24 ele =        45 
2.400e+01 // azi =      24 ele =        48 
2.400e+01 // azi =      24 ele =        51 
2.400e+01 // azi =      24 ele =        54 
2.400e+01 // azi =      24 ele =        57 
2.400e+01 // azi =      24 ele =        60 
2.400e+01 // azi =      24 ele =        63 
2.400e+01 // azi =      24 ele =        66 
2.400e+01 // azi =      24 ele =        69 
2.400e+01 // azi =      24 ele =        72 
2.400e+01 // azi =      24 ele =        75 
2.400e+01 // azi =      24 ele =        78 
2.400e+01 // azi =      24 ele =        81 
2.400e+01 // azi =      24 ele =        84 
2.400e+01 // azi =      24 ele =        87 
2.400e+01 // azi =      24 ele =        90 
2.800e+01 // azi =      28 ele =         0 
2.800e+01 // azi =      28 ele =         3 
2.800e+01 // azi =      28 ele =         6 
2.800e+01 // azi =      28 ele =         9 
2.800e+01 // azi =      28 ele =        12 
2.800e+01 // azi =      28 ele =        15 
2.800e+01 // azi =      28 ele =        18 
2.800e+01 // azi =      28 ele =        21 
2.800e+01 // azi =      28 ele =        24 
2.800e+01 // azi =      28 ele =        27 
2.800e+01 // azi =      28 ele =        30 
2.800e+01 // azi =      28 ele =        33 
2.800e+01 // azi =      28 ele =        36 
2.800e+01 // azi =      28 ele =        39 
2.800e+01 // azi =      28 ele =        42 
2.800e+01 // azi =      28 ele =        45 
2.800e+01 // azi =      28 ele =        48 
2.800e+01 // azi =      28 ele =        51 
2.800e+01 // azi =      28 ele =        54 
2.800e+01 // azi =      28 ele =        57 
2.800e+01 // azi =      28 ele =        60 
2.800e+01 // azi =      28 ele =        63 
2.800e+01 // azi =      28 ele =        66 
2.800e+01 // azi =      28 ele =        69 
2.800e+01 // azi =      28 ele =        72 
2.800e+01 // azi =      28 ele =        75 
2.800e+01 // azi =      28 ele =        78 
2.800e+01 // azi =      28 ele =        81 
2.800e+01 // azi =      28 ele =        84 
2.800e+01 // azi =      28 ele =        87 
2.800e+01 // azi =      28 ele =        90 
3.200e+01 // azi =      32 ele =         0 
3.200e+01 // azi =      32 ele =         3 
3.200e+01 // azi =      32 ele =         6 
3.200e+01 // azi =      32 ele =         9 
3.200e+01 // azi =      32 ele =        12 
3.200e+01 // azi =      32 ele =        15 
3.200e+01 // azi =      32 ele =        18 
3.200e+01 // azi =      32 ele =        21 
3.200e+01 // azi =      32 ele =        24 
3.200e+01 // azi =      32 ele =        27 
3.200e+01 // azi =      32 ele =        30 
3.200e+01 // azi =      32 ele =        33 
3.200e+01 // azi =      32 ele =        36 
3.200e+01 // azi =      32 ele =        39 
3.200e+01 // azi =      32 ele =        42 
3.200e+01 // azi =      32 ele =        45 
3.200e+01 // azi =      32 ele =        48 
3.200e+01 // azi =      32 ele =        51 
3.200e+01 // azi =      32 ele =        54 
3.200e+01 // azi =      32 ele =        57 
3.200e+01 // azi =      32 ele =        60 
3.200e+01 // azi =      32 ele =        63 
3.200e+01 // azi =      32 ele =        66 
3.200e+01 // azi =      32 ele =        69 
3.200e+01 // azi =      32 ele =        72 
3.200e+01 // azi =      32 ele =        75 
3.200e+01 // azi =      32 ele =        78 
3.200e+01 // azi =      32 ele =        81 
3.200e+01 // azi =      32 ele =        84 
3.200e+01 // azi =      32 ele =        87 
3.200e+01 // azi =      32 ele =        90 
3.600e+01 // azi =      36 ele =         0 
3.600e+01 // azi =      36 ele =         3 
3.600e+01 // azi =      36 ele =         6 
3.600e+01 // azi =      36 ele =         9 
3.600e+01 // azi =      36 ele =        12 
3.600e+01 // azi =      36 ele =        15 
3.600e+01 // azi =      36 ele =        18 
3.600e+01 // azi =      36 ele =        21 
3.600e+01 // azi =      36 ele =        24 
3.600e+01 // azi =      36 ele =        27 
3.600e+01 // azi =      36 ele =        30 
3.600e+01 // azi =      36 ele =        33 
3.600e+01 // azi =      36 ele =        36 
3.600e+01 // azi =      36 ele =        39 
3.600e+01 // azi =      36 ele =        42 
3.600e+01 // azi =      36 ele =        45 
3.600e+01 // azi =      36 ele =        48 
3.600e+01 // azi =      36 ele =        51 
3.600e+01 // azi =      36 ele =        54 
3.600e+01 // azi =      36 ele =        57 
3.600e+01 // azi =      36 ele =        60 
3.600e+01 // azi =      36 ele =        63 
3.600e+01 // azi =      36 ele =        66 
3.600e+01 // azi =      36 ele =        69 
3.600e+01 // azi =      36 ele =        72 
3.600e+01 // azi =      36 ele =        75 
3.600e+01 // azi =      36 ele =        78 
3.600e+01 // azi =      36 ele =        81 
3.600e+01 // azi =      36 ele =        84 
3.600e+01 // azi =      36 ele =        87 
3.600e+01 // azi =      36 ele =        90 
4.000e+01 // azi =      40 ele =         0 
4.000e+01 // azi =      40 ele =         3 
4.000e+01 // azi =      40 ele =         6 
4.000e+01 // azi =      40 ele =         9 
4.000e+01 // azi =      40 ele =        12 
4.000e+01 // azi =      40 ele =        15 
4.000e+01 // azi =      40 ele =        18 
4.000e+01 // azi =      40 ele =        21 
4.000e+01 // azi =      40 ele =        24 
4.000e+01 // azi =      40 ele =        27 
4.000e+01 // azi =      40 ele =        30 
4.000e+01 // azi =      40 ele =        33 
4.000e+01 // azi =      40 ele =        36 
4.000e+01 // azi =      40 ele =        39 
4.000e+01 // azi =      40 ele =        42 
4.000e+01 // azi =      40 ele =        45 
4.000e+01 // azi =      40 ele =        48 
4.000e+01 // azi =      40 ele =        51 
4.000e+01 // azi =      40 ele =        54 
4.000e+01 // azi =      40 ele =        57 
4.000e+01 // azi =      40 ele =        60 
4.000e+01 // azi =      40 ele =        63 
4.000e+01 // azi =      40 ele =        66 
4.000e+01 // azi =      40 ele =        69 
4.000e+01 // azi =      40 ele =        72 
4.000e+01 // azi =      40 ele =        75 
4.000e+01 // azi =      40 ele =        78 
4.000e+01 // azi =      40 ele =        81 
4.000e+01 // azi =      40 ele =        84 
4.000e+01 // azi =      40 ele =        87 
4.000e+01 // azi =      40 ele =        90 
4.400e+01 // azi =      44 ele =         0 
4.400e+01 // azi =      44 ele =         3 
4.400e+01 // azi =      44 ele =         6 
4.400e+01 // azi =      44 ele =         9 
4.400e+01 // azi =      44 ele =        12 
4.400e+01 // azi =      44 ele =        15 
4.400e+01 // azi =      44 ele =        18 
4.400e+01 // azi =      44 ele =        21 
4.400e+01 // azi =      44 ele =        24 
4.400e+01 // azi =      44 ele =        27 
4.400e+01 // azi =      44 ele =        30 
4.400e+01 // azi =      44 ele =        33 
4.400e+01 // azi =      44 ele =        36 
4.400e+01 // azi =      44 ele =        39 
4.400e+01 // azi =      44 ele =        42 
4.400e+01 // azi =      44 ele =        45 
4.400e+01 // azi =      44 ele =        48 
4.400e+01 // azi =      44 ele =        51 
4.400e+01 // azi =      44 ele =        54 
4.400e+01 // azi =      44 ele =        57 
4.400e+01 // azi =      44 ele =        60 
4.400e+01 // azi =      44 ele =        63 
4.400e+01 // azi =      44 ele =        66 
4.400e+01 // azi =      44 ele =        69 
4.400e+01 // azi =      44 ele =        72 
4.400e+01 // azi =      44 ele =        75 
4.400e+01 // azi =      44 ele =        78 
4.400e+01 // azi =      44 ele =        81 
4.400e+01 // azi =      44 ele =        84 
4.400e+01 // azi =      44 ele =        87 
4.400e+01 // azi =      44 ele =        90 
4.800e+01 // azi =      48 ele =         0 
4.800e+01 // azi =      48 ele =         3 
4.800e+01 // azi =      48 ele =         6 
4.800e+01 // azi =      48 ele =         9 
4.800e+01 // azi =      48 ele =        12 
4.800e+01 // azi =      48 ele =        15 
4.800e+01 // azi =      48 ele =        18 
4.800e+01 // azi =      48 ele =        21 
4.800e+01 // azi =      48 ele =        24 
4.800e+01 // azi =      48 ele =        27 
4.800e+01 // azi =      48 ele =        30 
4.800e+01 // azi =      48 ele =        33 
4.800e+01 // azi =      48 ele =        36 
4.800e+01 // azi =      48 ele =        39 
4.800e+01 // azi =      48 ele =        42 
4.800e+01 // azi =      48 ele =        45 
4.800e+01 // azi =      48 ele =        48 
4.800e+01 // azi =      48 ele =        51 
4.800e+01 // azi =      48 ele =        54 
4.800e+01 // azi =      48 ele =        57 
4.800e+01 // azi =      48 ele =        60 
4.800e+01 // azi =      48 ele =        63 
4.800e+01 // azi =      48 ele =        66 
4.800e+01 // azi =      48 ele =        69 
4.800e+01 // azi =      48 ele =        72 
4.800e+01 // azi =      48 ele =        75 
4.800e+01 // azi =      48 ele =        78 
4.800e+01 // azi =      48 ele =        81 
4.800e+01 // azi =      48 ele =        84 
4.800e+01 // azi =      48 ele =        87 
4.800e+01 // azi =      48 ele =        90 
5.200e+01 // azi =      52 ele =         0 
5.200e+01 // azi =      52 ele =         3 
5.200e+01 // azi =      52 ele =         6 
5.200e+01 // azi =      52 ele =         9 
5.200e+01 // azi =      52 ele =        12 
5.200e+01 // azi =      52 ele =        15 
5.200e+01 // azi =      52 ele =        18 
5.200e+01 // azi =      52 ele =        21 
5.200e+01 // azi =      52 ele =        24 
5.200e+01 // azi =      52 ele =        27 
5.200e+01 // azi =      52 ele =        30 
5.200e+01 // azi =      52 ele =        33 
5.200e+01 // azi =      52 ele =        36 
5.200e+01 // azi =      52 ele =        39 
5.200e+01 // azi =      52 ele =        42 
5.200e+01 // azi =      52 ele =        45 
5.200e+01 // azi =      52 ele =        48 
5.200e+01 // azi =      52 ele =        51 
5.200e+01 // azi =      52 ele =        54 
5.200e+01 // azi =      52 ele =        57 
5.200e+01 // azi =      52 ele =        60 
5.200e+01 // azi =      52 ele =        63 
5.200e+01 // azi =      52 ele =        66 
5.200e+01 // azi =      52 ele =        69 
5.200e+01 // azi =      52 ele =        72 
5.200e+01 // azi =      52 ele =        75 
5.200e+01 // azi =      52 ele =        78 
5.200e+01 // azi =      52 ele =        81 
5.200e+01 // azi =      52 ele =        84 
5.200e+01 // azi =      52 ele =        87 
5.200e+01 // azi =      52 ele =        90 
5.600e+01 // azi =      56 ele =         0 
5.600e+01 // azi =      56 ele =         3 
5.600e+01 // azi =      56 ele =         6 
5.600e+01 // azi =      56 ele =         9 
5.600e+01 // azi =      56 ele =        12 
5.600e+01 // azi =      56 ele =        15 
5.600e+01 // azi =      56 ele =        18 
5.600e+01 // azi =      56 ele =        21 
5.600e+01 // azi =      56 ele =        24 
5.600e+01 // azi =      56 ele =        27 
5.600e+01 // azi =      56 ele =        30 
5.600e+01 // azi =      56 ele =        33 
5.600e+01 // azi =      56 ele =        36 
5.600e+01 // azi =      56 ele =        39 
5.600e+01 // azi =      56 ele =        42 
5.600e+01 // azi =      56 ele =        45 
5.600e+01 // azi =      56 ele =        48 
5.600e+01 // azi =      56 ele =        51 
5.600e+01 // azi =      56 ele =        54 
5.600e+01 // azi =      56 ele =        57 
5.600e+01 // azi =      56 ele =        60 
5.600e+01 // azi =      56 ele =        63 
5.600e+01 // azi =      56 ele =        66 
5.600e+01 // azi =      56 ele =        69 
5.600e+01 // azi =      56 ele =        72 
5.600e+01 // azi =      56 ele =        75 
5.600e+01 // azi =      56 ele =        78 
5.600e+01 // azi =      56 ele =        81 
5.600e+01 // azi =      56 ele =        84 
5.600e+01 // azi =      56 ele =        87 
5.600e+01 // azi =      56 ele =        90 
6.000e+01 // azi =      60 ele =         0 
6.000e+01 // azi =      60 ele =         3 
6.000e+01 // azi =      60 ele =         6 
6.000e+01 // azi =      60 ele =         9 
6.000e+01 // azi =      60 ele =        12 
6.000e+01 // azi =      60 ele =        15 
6.000e+01 // azi =      60 ele =        18 
6.000e+01 // azi =      60 ele =        21 
6.000e+01 // azi =      60 ele =        24 
6.000e+01 // azi =      60 ele =        27 
6.000e+01 // azi =      60 ele =        30 
6.000e+01 // azi =      60 ele =        33 
6.000e+01 // azi =      60 ele =        36 
6.000e+01 // azi =      60 ele =        39 
6.000e+01 // azi =      60 ele =        42 
6.000e+01 // azi =      60 ele =        45 
6.000e+01 // azi =      60 ele =        48 
6.000e+01 // azi =      60 ele =        51 
6.000e+01 // azi =      60 ele =        54 
6.000e+01 // azi =      60 ele =        57 
6.000e+01 // azi =      60 ele =        60 
6.000e+01 // azi =      60 ele =        63 
6.000e+01 // azi =      60 ele =        66 
6.000e+01 // azi =      60 ele =        69 
6.000e+01 // azi =      60 ele =        72 
6.000e+01 // azi =      60 ele =        75 
6.000e+01 // azi =      60 ele =        78 
6.000e+01 // azi =      60 ele =        81 
6.000e+01 // azi =      60 ele =        84 
6.000e+01 // azi =      60 ele =        87 
6.000e+01 // azi =      60 ele =        90 
6.400e+01 // azi =      64 ele =         0 
6.400e+01 // azi =      64 ele =         3 
6.400e+01 // azi =      64 ele =         6 
6.400e+01 // azi =      64 ele =         9 
6.400e+01 // azi =      64 ele =        12 
6.400e+01 // azi =      64 ele =        15 
6.400e+01 // azi =      64 ele =        18 
6.400e+01 // azi =      64 ele =        21 
6.400e+01 // azi =      64 ele =        24 
6.400e+01 // azi =      64 ele =        27 
6.400e+01 // azi =      64 ele =        30 
6.400e+01 // azi =      64 ele =        33 
6.400e+01 // azi =      64 ele =        36 
6.400e+01 // azi =      64 ele =        39 
6.400e+01 // azi =      64 ele =        42 
6.400e+01 // azi =      64 ele =        45 
6.400e+01 // azi =      64 ele =        48 
6.400e+01 // azi =      64 ele =        51 
6.400e+01 // azi =      64 ele =        54 
6.400e+01 // azi =      64 ele =        57 
6.400e+01 // azi =      64 ele =        60 
6.400e+01 // azi =      64 ele =        63 
6.400e+01 // azi =      64 ele =        66 
6.400e+01 // azi =      64 ele =        69 
6.400e+01 // azi =      64 ele =        72 
6.400e+01 // azi =      64 ele =        75 
6.400e+01 // azi =      64 ele =        78 
6.400e+01 // azi =      64 ele =        81 
6.400e+01 // azi =      64 ele =        84 
6.400e+01 // azi =      64 ele =        87 
6.400e+01 // azi =      64 ele =        90 
6.800e+01 // azi =      68 ele =         0 
6.800e+01 // azi =      68 ele =         3 
6.800e+01 // azi =      68 ele =         6 
6.800e+01 // azi =      68 ele =         9 
6.800e+01 // azi =      68 ele =        12 
6.800e+01 // azi =      68 ele =        15 
6.800e+01 // azi =      68 ele =        18 
6.800e+01 // azi =      68 ele =        21 
6.800e+01 // azi =      68 ele =        24 
6.800e+01 // azi =      68 ele =        27 
6.800e+01 // azi =      68 ele =        30 
6.800e+01 // azi =      68 ele =        33 
6.800e+01 // azi =      68 ele =        36 
6.800e+01 // azi =      68 ele =        39 
6.800e+01 // azi =      68 ele =        42 
6.800e+01 // azi =      68 ele =        45 
6.800e+01 // azi =      68 ele =        48 
6.800e+01 // azi =      68 ele =        51 
6.800e+01 // azi =      68 ele =        54 
6.800e+01 // azi =      68 ele =        57 
6.800e+01 // azi =      68 ele =        60 
6.800e+01 // azi =      68 ele =        63 
6.800e+01 // azi =      68 ele =        66 
6.800e+01 // azi =      68 ele =        69 
6.800e+01 // azi =      68 ele =        72 
6.800e+01 // azi =      68 ele =        75 
6.800e+01 // azi =      68 ele =        78 
6.800e+01 // azi =      68 ele =        81 
6.800e+01 // azi =      68 ele =        84 
6.800e+01 // azi =      68 ele =        87 
6.800e+01 // azi =      68 ele =        90 
7.200e+01 // azi =      72 ele =         0 
7.200e+01 // azi =      72 ele =         3 
7.200e+01 // azi =      72 ele =         6 
7.200e+01 // azi =      72 ele =         9 
7.200e+01 // azi =      72 ele =        12 
7.200e+01 // azi =      72 ele =        15 
7.200e+01 // azi =      72 ele =        18 
7.200e+01 // azi =      72 ele =        21 
7.200e+01 // azi =      72 ele =        24 
7.200e+01 // azi =      72 ele =        27 
7.200e+01 // azi =      72 ele =        30 
7.200e+01 // azi =      72 ele =        33 
7.200e+01 // azi =      72 ele =        36 
7.200e+01 // azi =      72 ele =        39 
7.200e+01 // azi =      72 ele =        42 
7.200e+01 // azi =      72 ele =        45 
7.200e+01 // azi =      72 ele =        48 
7.200e+01 // azi =      72 ele =        51 
7.200e+01 // azi =      72 ele =        54 
7.200e+01 // azi =      72 ele =        57 
7.200e+01 // azi =      72 ele =        60 
7.200e+01 // azi =      72 ele =        63 
7.200e+01 // azi =      72 ele =        66 
7.200e+01 // azi =      72 ele =        69 
7.200e+01 // azi =      72 ele =        72 
7.200e+01 // azi =      72 ele =        75 
7.200e+01 // azi =      72 ele =        78 
7.200e+01 // azi =      72 ele =        81 
7.200e+01 // azi =      72 ele =        84 
7.200e+01 // azi =      72 ele =        87 
7.200e+01 // azi =      72 ele =        90 
7.600e+01 // azi =      76 ele =         0 
7.600e+01 // azi =      76 ele =         3 
7.600e+01 // azi =      76 ele =         6 
7.600e+01 // azi =      76 ele =         9 
7.600e+01 // azi =      76 ele =        12 
7.600e+01 // azi =      76 ele =        15 
7.600e+01 // azi =      76 ele =        18 
7.600e+01 // azi =      76 ele =        21 
7.600e+01 // azi =      76 ele =        24 
7.600e+01 // azi =      76 ele =        27 
7.600e+01 // azi =      76 ele =        30 
7.600e+01 // azi =      76 ele =        33 
7.600e+01 // azi =      76 ele =        36 
7.600e+01 // azi =      76 ele =        39 
7.600e+01 // azi =      76 ele =        42 
7.600e+01 // azi =      76 ele =        45 
7.600e+01 // azi =      76 ele =        48 
7.600e+01 // azi =      76 ele =        51 
7.600e+01 // azi =      76 ele =        54 
7.600e+01 // azi =      76 ele =        57 
7.600e+01 // azi =      76 ele =        60 
7.600e+01 // azi =      76 ele =        63 
7.600e+01 // azi =      76 ele =        66 
7.600e+01 // azi =      76 ele =        69 
7.600e+01 // azi =      76 ele =        72 
7.600e+01 // azi =      76 ele =        75 
7.600e+01 // azi =      76 ele =        78 
7.600e+01 // azi =      76 ele =        81 
7.600e+01 // azi =      76 ele =        84 
7.600e+01 // azi =      76 ele =        87 
7.600e+01 // azi =      76 ele =        90 
8.000e+01 // azi =      80 ele =         0 
8.000e+01 // azi =      80 ele =         3 
8.000e+01 // azi =      80 ele =         6 
8.000e+01 // azi =      80 ele =         9 
8.000e+01 // azi =      80 ele =        12 
8.000e+01 // azi =      80 ele =        15 
8.000e+01 // azi =      80 ele =        18 
8.000e+01 // azi =      80 ele =        21 
8.000e+01 // azi =      80 ele =        24 
8.000e+01 // azi =      80 ele =        27 
8.000e+01 // azi =      80 ele =        30 
8.000e+01 // azi =      80 ele =        33 
8.000e+01 // azi =      80 ele =        36 
8.000e+01 // azi =      80 ele =        39 
8.000e+01 // azi =      80 ele =        42 
8.000e+01 // azi =      80 ele =        45 
8.000e+01 // azi =      80 ele =        48 
8.000e+01 // azi =      80 ele =        51 
8.000e+01 // azi =      80 ele =        54 
8.000e+01 // azi =      80 ele =        57 
8.000e+01 // azi =      80 ele =        60 
8.000e+01 // azi =      80 ele =        63 
8.000e+01 // azi =      80 ele =        66 
8.000e+01 // azi =      80 ele =        69 
8.000e+01 // azi =      80 ele =        72 
8.000e+01 // azi =      80 ele =        75 
8.000e+01 // azi =      80 ele =        78 
8.000e+01 // azi =      80 ele =        81 
8.000e+01 // azi =      80 ele =        84 
8.000e+01 // azi =      80 ele =        87 
8.000e+01 // azi =      80 ele =        90 
8.400e+01 // azi =      84 ele =         0 
8.400e+01 // azi =      84 ele =         3 
8.400e+01 // azi =      84 ele =         6 
8.400e+01 // azi =      84 ele =         9 
8.400e+01 // azi =      84 ele =        12 
8.400e+01 // azi =      84 ele =        15 
8.400e+01 // azi =      84 ele =        18 
8.400e+01 // azi =      84 ele =        21 
8.400e+01 // azi =      84 ele =        24 
8.400e+01 // azi =      84 ele =        27 
8.400e+01 // azi =      84 ele =        30 
8.400e+01 // azi =      84 ele =        33 
8.400e+01 // azi =      84 ele =        36 
8.400e+01 // azi =      84 ele =        39 
8.400e+01 // azi =      84 ele =        42 
8.400e+01 // azi =      84 ele =        45 
8.400e+01 // azi =      84 ele =        48 
8.400e+01 // azi =      84 ele =        51 
8.400e+01 // azi =      84 ele =        54 
8.400e+01 // azi =      84 ele =        57 
8.400e+01 // azi =      84 ele =        60 
8.400e+01 // azi =      84 ele =        63 
8.400e+01 // azi =      84 ele =        66 
8.400e+01 // azi =      84 ele =        69 
8.400e+01 // azi =      84 ele =        72 
8.400e+01 // azi =      84 ele =        75 