FoamFile
{
    version     2.0;
    format      ascii;
    class       dictionary;
    location    "constant";
    object      LookupTableInjection;
}
avgFlux
List<scalar>
 2790
(
4.790e+00 // azi =       0 ele =         0 
4.272e+00 // azi =       0 ele =         3 
4.013e+00 // azi =       0 ele =         6 
5.460e+00 // azi =       0 ele =         9 
6.709e+00 // azi =       0 ele =        12 
8.504e+00 // azi =       0 ele =        15 
7.016e+00 // azi =       0 ele =        18 
6.573e+00 // azi =       0 ele =        21 
6.668e+00 // azi =       0 ele =        24 
6.390e+00 // azi =       0 ele =        27 
6.150e+00 // azi =       0 ele =        30 
5.435e+00 // azi =       0 ele =        33 
4.090e+00 // azi =       0 ele =        36 
5.370e+00 // azi =       0 ele =        39 
5.454e+00 // azi =       0 ele =        42 
6.815e+00 // azi =       0 ele =        45 
7.186e+00 // azi =       0 ele =        48 
7.599e+00 // azi =       0 ele =        51 
6.959e+00 // azi =       0 ele =        54 
7.058e+00 // azi =       0 ele =        57 
7.331e+00 // azi =       0 ele =        60 
7.581e+00 // azi =       0 ele =        63 
8.269e+00 // azi =       0 ele =        66 
8.684e+00 // azi =       0 ele =        69 
6.964e+00 // azi =       0 ele =        72 
6.144e+00 // azi =       0 ele =        75 
5.591e+00 // azi =       0 ele =        78 
5.108e+00 // azi =       0 ele =        81 
4.571e+00 // azi =       0 ele =        84 
3.865e+00 // azi =       0 ele =        87 
2.830e+00 // azi =       0 ele =        90 
4.950e+00 // azi =       4 ele =         0 
4.830e+00 // azi =       4 ele =         3 
4.986e+00 // azi =       4 ele =         6 
5.626e+00 // azi =       4 ele =         9 
6.328e+00 // azi =       4 ele =        12 
6.750e+00 // azi =       4 ele =        15 
6.649e+00 // azi =       4 ele =        18 
6.446e+00 // azi =       4 ele =        21 
6.345e+00 // azi =       4 ele =        24 
6.145e+00 // azi =       4 ele =        27 
6.181e+00 // azi =       4 ele =        30 
5.720e+00 // azi =       4 ele =        33 
5.402e+00 // azi =       4 ele =        36 
5.060e+00 // azi =       4 ele =        39 
5.426e+00 // azi =       4 ele =        42 
5.911e+00 // azi =       4 ele =        45 
6.791e+00 // azi =       4 ele =        48 
7.033e+00 // azi =       4 ele =        51 
6.781e+00 // azi =       4 ele =        54 
6.602e+00 // azi =       4 ele =        57 
7.231e+00 // azi =       4 ele =        60 
7.442e+00 // azi =       4 ele =        63 
7.992e+00 // azi =       4 ele =        66 
8.236e+00 // azi =       4 ele =        69 
6.813e+00 // azi =       4 ele =        72 
6.074e+00 // azi =       4 ele =        75 
5.562e+00 // azi =       4 ele =        78 
5.099e+00 // azi =       4 ele =        81 
4.571e+00 // azi =       4 ele =        84 
3.866e+00 // azi =       4 ele =        87 
2.830e+00 // azi =       4 ele =        90 
5.154e+00 // azi =       8 ele =         0 
5.206e+00 // azi =       8 ele =         3 
5.373e+00 // azi =       8 ele =         6 
5.666e+00 // azi =       8 ele =         9 
6.040e+00 // azi =       8 ele =        12 
6.237e+00 // azi =       8 ele =        15 
6.279e+00 // azi =       8 ele =        18 
6.222e+00 // azi =       8 ele =        21 
6.122e+00 // azi =       8 ele =        24 
5.963e+00 // azi =       8 ele =        27 
6.265e+00 // azi =       8 ele =        30 
6.038e+00 // azi =       8 ele =        33 
5.133e+00 // azi =       8 ele =        36 
5.226e+00 // azi =       8 ele =        39 
5.364e+00 // azi =       8 ele =        42 
5.644e+00 // azi =       8 ele =        45 
6.298e+00 // azi =       8 ele =        48 
6.479e+00 // azi =       8 ele =        51 
6.446e+00 // azi =       8 ele =        54 
6.364e+00 // azi =       8 ele =        57 
7.082e+00 // azi =       8 ele =        60 
7.214e+00 // azi =       8 ele =        63 
7.527e+00 // azi =       8 ele =        66 
7.624e+00 // azi =       8 ele =        69 
6.546e+00 // azi =       8 ele =        72 
5.967e+00 // azi =       8 ele =        75 
5.519e+00 // azi =       8 ele =        78 
5.085e+00 // azi =       8 ele =        81 
4.568e+00 // azi =       8 ele =        84 
3.866e+00 // azi =       8 ele =        87 
2.830e+00 // azi =       8 ele =        90 
5.048e+00 // azi =      12 ele =         0 
5.114e+00 // azi =      12 ele =         3 
5.423e+00 // azi =      12 ele =         6 
5.592e+00 // azi =      12 ele =         9 
6.169e+00 // azi =      12 ele =        12 
6.300e+00 // azi =      12 ele =        15 
6.059e+00 // azi =      12 ele =        18 
6.041e+00 // azi =      12 ele =        21 
5.933e+00 // azi =      12 ele =        24 
5.783e+00 // azi =      12 ele =        27 
5.379e+00 // azi =      12 ele =        30 
5.134e+00 // azi =      12 ele =        33 
5.120e+00 // azi =      12 ele =        36 
5.187e+00 // azi =      12 ele =        39 
4.397e+00 // azi =      12 ele =        42 
4.599e+00 // azi =      12 ele =        45 
4.800e+00 // azi =      12 ele =        48 
6.029e+00 // azi =      12 ele =        51 
6.053e+00 // azi =      12 ele =        54 
6.066e+00 // azi =      12 ele =        57 
6.171e+00 // azi =      12 ele =        60 
6.935e+00 // azi =      12 ele =        63 
7.060e+00 // azi =      12 ele =        66 
7.083e+00 // azi =      12 ele =        69 
6.233e+00 // azi =      12 ele =        72 
5.836e+00 // azi =      12 ele =        75 
5.467e+00 // azi =      12 ele =        78 
5.067e+00 // azi =      12 ele =        81 
4.564e+00 // azi =      12 ele =        84 
3.866e+00 // azi =      12 ele =        87 
2.830e+00 // azi =      12 ele =        90 
5.020e+00 // azi =      16 ele =         0 
5.072e+00 // azi =      16 ele =         3 
5.147e+00 // azi =      16 ele =         6 
5.240e+00 // azi =      16 ele =         9 
5.337e+00 // azi =      16 ele =        12 
6.184e+00 // azi =      16 ele =        15 
6.161e+00 // azi =      16 ele =        18 
6.109e+00 // azi =      16 ele =        21 
5.670e+00 // azi =      16 ele =        24 
4.209e+00 // azi =      16 ele =        27 
4.143e+00 // azi =      16 ele =        30 
4.071e+00 // azi =      16 ele =        33 
4.961e+00 // azi =      16 ele =        36 
3.978e+00 // azi =      16 ele =        39 
4.071e+00 // azi =      16 ele =        42 
4.181e+00 // azi =      16 ele =        45 
4.285e+00 // azi =      16 ele =        48 
5.598e+00 // azi =      16 ele =        51 
5.635e+00 // azi =      16 ele =        54 
5.729e+00 // azi =      16 ele =        57 
5.865e+00 // azi =      16 ele =        60 
6.635e+00 // azi =      16 ele =        63 
6.620e+00 // azi =      16 ele =        66 
6.599e+00 // azi =      16 ele =        69 
5.925e+00 // azi =      16 ele =        72 
5.694e+00 // azi =      16 ele =        75 
5.409e+00 // azi =      16 ele =        78 
5.046e+00 // azi =      16 ele =        81 
4.558e+00 // azi =      16 ele =        84 
3.865e+00 // azi =      16 ele =        87 
2.830e+00 // azi =      16 ele =        90 
4.923e+00 // azi =      20 ele =         0 
4.956e+00 // azi =      20 ele =         3 
5.013e+00 // azi =      20 ele =         6 
5.089e+00 // azi =      20 ele =         9 
5.095e+00 // azi =      20 ele =        12 
5.104e+00 // azi =      20 ele =        15 
5.086e+00 // azi =      20 ele =        18 
4.449e+00 // azi =      20 ele =        21 
4.357e+00 // azi =      20 ele =        24 
4.258e+00 // azi =      20 ele =        27 
3.863e+00 // azi =      20 ele =        30 
3.802e+00 // azi =      20 ele =        33 
2.741e+00 // azi =      20 ele =        36 
3.672e+00 // azi =      20 ele =        39 
3.725e+00 // azi =      20 ele =        42 
3.772e+00 // azi =      20 ele =        45 
3.818e+00 // azi =      20 ele =        48 
3.869e+00 // azi =      20 ele =        51 
4.188e+00 // azi =      20 ele =        54 
5.372e+00 // azi =      20 ele =        57 
5.087e+00 // azi =      20 ele =        60 
5.312e+00 // azi =      20 ele =        63 
5.443e+00 // azi =      20 ele =        66 
5.527e+00 // azi =      20 ele =        69 
5.644e+00 // azi =      20 ele =        72 
5.556e+00 // azi =      20 ele =        75 
5.349e+00 // azi =      20 ele =        78 
5.022e+00 // azi =      20 ele =        81 
4.551e+00 // azi =      20 ele =        84 
3.864e+00 // azi =      20 ele =        87 
2.830e+00 // azi =      20 ele =        90 
3.592e+00 // azi =      24 ele =         0 
4.428e+00 // azi =      24 ele =         3 
3.680e+00 // azi =      24 ele =         6 
3.765e+00 // azi =      24 ele =         9 
4.895e+00 // azi =      24 ele =        12 
4.917e+00 // azi =      24 ele =        15 
3.863e+00 // azi =      24 ele =        18 
3.742e+00 // azi =      24 ele =        21 
4.135e+00 // azi =      24 ele =        24 
4.001e+00 // azi =      24 ele =        27 
3.788e+00 // azi =      24 ele =        30 
3.060e+00 // azi =      24 ele =        33 
3.000e+00 // azi =      24 ele =        36 
2.955e+00 // azi =      24 ele =        39 
3.053e+00 // azi =      24 ele =        42 
3.422e+00 // azi =      24 ele =        45 
3.408e+00 // azi =      24 ele =        48 
3.438e+00 // azi =      24 ele =        51 
3.826e+00 // azi =      24 ele =        54 
3.501e+00 // azi =      24 ele =        57 
4.878e+00 // azi =      24 ele =        60 
5.068e+00 // azi =      24 ele =        63 
5.105e+00 // azi =      24 ele =        66 
5.296e+00 // azi =      24 ele =        69 
5.402e+00 // azi =      24 ele =        72 
5.432e+00 // azi =      24 ele =        75 
5.290e+00 // azi =      24 ele =        78 
4.997e+00 // azi =      24 ele =        81 
4.542e+00 // azi =      24 ele =        84 
3.862e+00 // azi =      24 ele =        87 
2.830e+00 // azi =      24 ele =        90 
4.260e+00 // azi =      28 ele =         0 
4.263e+00 // azi =      28 ele =         3 
4.355e+00 // azi =      28 ele =         6 
3.811e+00 // azi =      28 ele =         9 
4.950e+00 // azi =      28 ele =        12 
5.017e+00 // azi =      28 ele =        15 
4.941e+00 // azi =      28 ele =        18 
4.299e+00 // azi =      28 ele =        21 
4.075e+00 // azi =      28 ele =        24 
3.924e+00 // azi =      28 ele =        27 
3.834e+00 // azi =      28 ele =        30 
3.692e+00 // azi =      28 ele =        33 
2.922e+00 // azi =      28 ele =        36 
2.910e+00 // azi =      28 ele =        39 
3.033e+00 // azi =      28 ele =        42 
2.943e+00 // azi =      28 ele =        45 
2.769e+00 // azi =      28 ele =        48 
2.478e+00 // azi =      28 ele =        51 
3.150e+00 // azi =      28 ele =        54 
3.460e+00 // azi =      28 ele =        57 
3.723e+00 // azi =      28 ele =        60 
4.889e+00 // azi =      28 ele =        63 
4.821e+00 // azi =      28 ele =        66 
4.908e+00 // azi =      28 ele =        69 
5.263e+00 // azi =      28 ele =        72 
5.328e+00 // azi =      28 ele =        75 
5.234e+00 // azi =      28 ele =        78 
4.971e+00 // azi =      28 ele =        81 
4.531e+00 // azi =      28 ele =        84 
3.860e+00 // azi =      28 ele =        87 
2.830e+00 // azi =      28 ele =        90 
4.099e+00 // azi =      32 ele =         0 
3.955e+00 // azi =      32 ele =         3 
3.978e+00 // azi =      32 ele =         6 
4.460e+00 // azi =      32 ele =         9 
5.106e+00 // azi =      32 ele =        12 
5.316e+00 // azi =      32 ele =        15 
5.102e+00 // azi =      32 ele =        18 
5.084e+00 // azi =      32 ele =        21 
3.839e+00 // azi =      32 ele =        24 
3.788e+00 // azi =      32 ele =        27 
3.814e+00 // azi =      32 ele =        30 
3.493e+00 // azi =      32 ele =        33 
2.633e+00 // azi =      32 ele =        36 
2.852e+00 // azi =      32 ele =        39 
3.067e+00 // azi =      32 ele =        42 
2.940e+00 // azi =      32 ele =        45 
2.550e+00 // azi =      32 ele =        48 
2.212e+00 // azi =      32 ele =        51 
3.044e+00 // azi =      32 ele =        54 
3.450e+00 // azi =      32 ele =        57 
3.749e+00 // azi =      32 ele =        60 
4.785e+00 // azi =      32 ele =        63 
4.617e+00 // azi =      32 ele =        66 
4.525e+00 // azi =      32 ele =        69 
5.124e+00 // azi =      32 ele =        72 
5.248e+00 // azi =      32 ele =        75 
5.185e+00 // azi =      32 ele =        78 
4.944e+00 // azi =      32 ele =        81 
4.520e+00 // azi =      32 ele =        84 
3.857e+00 // azi =      32 ele =        87 
2.830e+00 // azi =      32 ele =        90 
4.018e+00 // azi =      36 ele =         0 
3.905e+00 // azi =      36 ele =         3 
3.961e+00 // azi =      36 ele =         6 
4.471e+00 // azi =      36 ele =         9 
5.005e+00 // azi =      36 ele =        12 
5.436e+00 // azi =      36 ele =        15 
5.657e+00 // azi =      36 ele =        18 
5.264e+00 // azi =      36 ele =        21 
3.957e+00 // azi =      36 ele =        24 
3.963e+00 // azi =      36 ele =        27 
4.021e+00 // azi =      36 ele =        30 
3.704e+00 // azi =      36 ele =        33 
3.154e+00 // azi =      36 ele =        36 
3.137e+00 // azi =      36 ele =        39 
3.229e+00 // azi =      36 ele =        42 
3.073e+00 // azi =      36 ele =        45 
2.677e+00 // azi =      36 ele =        48 
2.457e+00 // azi =      36 ele =        51 
3.120e+00 // azi =      36 ele =        54 
3.495e+00 // azi =      36 ele =        57 
3.794e+00 // azi =      36 ele =        60 
4.052e+00 // azi =      36 ele =        63 
4.637e+00 // azi =      36 ele =        66 
4.550e+00 // azi =      36 ele =        69 
5.067e+00 // azi =      36 ele =        72 
5.278e+00 // azi =      36 ele =        75 
5.142e+00 // azi =      36 ele =        78 
4.918e+00 // azi =      36 ele =        81 
4.508e+00 // azi =      36 ele =        84 
3.854e+00 // azi =      36 ele =        87 
2.830e+00 // azi =      36 ele =        90 
3.902e+00 // azi =      40 ele =         0 
3.836e+00 // azi =      40 ele =         3 
4.006e+00 // azi =      40 ele =         6 
4.520e+00 // azi =      40 ele =         9 
5.151e+00 // azi =      40 ele =        12 
6.042e+00 // azi =      40 ele =        15 
6.099e+00 // azi =      40 ele =        18 
5.806e+00 // azi =      40 ele =        21 
5.593e+00 // azi =      40 ele =        24 
4.634e+00 // azi =      40 ele =        27 
4.495e+00 // azi =      40 ele =        30 
4.395e+00 // azi =      40 ele =        33 
4.361e+00 // azi =      40 ele =        36 
3.733e+00 // azi =      40 ele =        39 
3.522e+00 // azi =      40 ele =        42 
3.331e+00 // azi =      40 ele =        45 
3.204e+00 // azi =      40 ele =        48 
3.159e+00 // azi =      40 ele =        51 
3.362e+00 // azi =      40 ele =        54 
3.585e+00 // azi =      40 ele =        57 
3.851e+00 // azi =      40 ele =        60 
4.135e+00 // azi =      40 ele =        63 
4.964e+00 // azi =      40 ele =        66 
4.943e+00 // azi =      40 ele =        69 
5.070e+00 // azi =      40 ele =        72 
5.219e+00 // azi =      40 ele =        75 
3.932e+00 // azi =      40 ele =        78 
3.742e+00 // azi =      40 ele =        81 
3.520e+00 // azi =      40 ele =        84 
3.231e+00 // azi =      40 ele =        87 
2.830e+00 // azi =      40 ele =        90 
3.669e+00 // azi =      44 ele =         0 
3.097e+00 // azi =      44 ele =         3 
2.906e+00 // azi =      44 ele =         6 
4.359e+00 // azi =      44 ele =         9 
5.711e+00 // azi =      44 ele =        12 
7.323e+00 // azi =      44 ele =        15 
6.699e+00 // azi =      44 ele =        18 
6.218e+00 // azi =      44 ele =        21 
6.185e+00 // azi =      44 ele =        24 
6.034e+00 // azi =      44 ele =        27 
4.937e+00 // azi =      44 ele =        30 
4.971e+00 // azi =      44 ele =        33 
5.499e+00 // azi =      44 ele =        36 
4.350e+00 // azi =      44 ele =        39 
3.799e+00 // azi =      44 ele =        42 
3.561e+00 // azi =      44 ele =        45 
3.605e+00 // azi =      44 ele =        48 
3.708e+00 // azi =      44 ele =        51 
3.572e+00 // azi =      44 ele =        54 
3.680e+00 // azi =      44 ele =        57 
3.908e+00 // azi =      44 ele =        60 
4.205e+00 // azi =      44 ele =        63 
4.747e+00 // azi =      44 ele =        66 
5.224e+00 // azi =      44 ele =        69 
5.085e+00 // azi =      44 ele =        72 
4.121e+00 // azi =      44 ele =        75 
3.930e+00 // azi =      44 ele =        78 
3.741e+00 // azi =      44 ele =        81 
3.520e+00 // azi =      44 ele =        84 
3.231e+00 // azi =      44 ele =        87 
2.830e+00 // azi =      44 ele =        90 
3.771e+00 // azi =      48 ele =         0 
3.483e+00 // azi =      48 ele =         3 
3.587e+00 // azi =      48 ele =         6 
4.468e+00 // azi =      48 ele =         9 
5.890e+00 // azi =      48 ele =        12 
6.535e+00 // azi =      48 ele =        15 
6.396e+00 // azi =      48 ele =        18 
6.327e+00 // azi =      48 ele =        21 
6.193e+00 // azi =      48 ele =        24 
6.078e+00 // azi =      48 ele =        27 
5.058e+00 // azi =      48 ele =        30 
5.056e+00 // azi =      48 ele =        33 
5.237e+00 // azi =      48 ele =        36 
4.960e+00 // azi =      48 ele =        39 
3.902e+00 // azi =      48 ele =        42 
3.677e+00 // azi =      48 ele =        45 
3.660e+00 // azi =      48 ele =        48 
3.925e+00 // azi =      48 ele =        51 
3.673e+00 // azi =      48 ele =        54 
3.756e+00 // azi =      48 ele =        57 
3.951e+00 // azi =      48 ele =        60 
4.438e+00 // azi =      48 ele =        63 
4.736e+00 // azi =      48 ele =        66 
4.779e+00 // azi =      48 ele =        69 
4.266e+00 // azi =      48 ele =        72 
4.023e+00 // azi =      48 ele =        75 
3.922e+00 // azi =      48 ele =        78 
3.737e+00 // azi =      48 ele =        81 
3.518e+00 // azi =      48 ele =        84 
3.231e+00 // azi =      48 ele =        87 
2.830e+00 // azi =      48 ele =        90 
4.083e+00 // azi =      52 ele =         0 
4.088e+00 // azi =      52 ele =         3 
4.265e+00 // azi =      52 ele =         6 
4.764e+00 // azi =      52 ele =         9 
5.591e+00 // azi =      52 ele =        12 
5.912e+00 // azi =      52 ele =        15 
6.028e+00 // azi =      52 ele =        18 
6.290e+00 // azi =      52 ele =        21 
6.159e+00 // azi =      52 ele =        24 
6.056e+00 // azi =      52 ele =        27 
5.752e+00 // azi =      52 ele =        30 
4.953e+00 // azi =      52 ele =        33 
4.978e+00 // azi =      52 ele =        36 
4.841e+00 // azi =      52 ele =        39 
3.870e+00 // azi =      52 ele =        42 
3.707e+00 // azi =      52 ele =        45 
3.874e+00 // azi =      52 ele =        48 
3.804e+00 // azi =      52 ele =        51 
3.720e+00 // azi =      52 ele =        54 
3.809e+00 // azi =      52 ele =        57 
4.270e+00 // azi =      52 ele =        60 
4.391e+00 // azi =      52 ele =        63 
4.386e+00 // azi =      52 ele =        66 
4.457e+00 // azi =      52 ele =        69 
4.175e+00 // azi =      52 ele =        72 
3.972e+00 // azi =      52 ele =        75 
3.908e+00 // azi =      52 ele =        78 
3.731e+00 // azi =      52 ele =        81 
3.516e+00 // azi =      52 ele =        84 
3.230e+00 // azi =      52 ele =        87 
2.830e+00 // azi =      52 ele =        90 
3.737e+00 // azi =      56 ele =         0 
3.815e+00 // azi =      56 ele =         3 
4.485e+00 // azi =      56 ele =         6 
4.721e+00 // azi =      56 ele =         9 
5.620e+00 // azi =      56 ele =        12 
5.815e+00 // azi =      56 ele =        15 
5.821e+00 // azi =      56 ele =        18 
5.880e+00 // azi =      56 ele =        21 
6.206e+00 // azi =      56 ele =        24 
6.127e+00 // azi =      56 ele =        27 
6.241e+00 // azi =      56 ele =        30 
5.133e+00 // azi =      56 ele =        33 
5.390e+00 // azi =      56 ele =        36 
4.769e+00 // azi =      56 ele =        39 
4.129e+00 // azi =      56 ele =        42 
3.998e+00 // azi =      56 ele =        45 
3.898e+00 // azi =      56 ele =        48 
3.829e+00 // azi =      56 ele =        51 
3.781e+00 // azi =      56 ele =        54 
3.864e+00 // azi =      56 ele =        57 
4.234e+00 // azi =      56 ele =        60 
4.316e+00 // azi =      56 ele =        63 
4.161e+00 // azi =      56 ele =        66 
4.191e+00 // azi =      56 ele =        69 
4.046e+00 // azi =      56 ele =        72 
3.906e+00 // azi =      56 ele =        75 
3.890e+00 // azi =      56 ele =        78 
3.722e+00 // azi =      56 ele =        81 
3.513e+00 // azi =      56 ele =        84 
3.230e+00 // azi =      56 ele =        87 
2.830e+00 // azi =      56 ele =        90 
4.357e+00 // azi =      60 ele =         0 
4.428e+00 // azi =      60 ele =         3 
4.535e+00 // azi =      60 ele =         6 
4.671e+00 // azi =      60 ele =         9 
4.817e+00 // azi =      60 ele =        12 
5.774e+00 // azi =      60 ele =        15 
6.248e+00 // azi =      60 ele =        18 
6.188e+00 // azi =      60 ele =        21 
6.000e+00 // azi =      60 ele =        24 
5.283e+00 // azi =      60 ele =        27 
5.290e+00 // azi =      60 ele =        30 
5.296e+00 // azi =      60 ele =        33 
5.309e+00 // azi =      60 ele =        36 
4.754e+00 // azi =      60 ele =        39 
4.678e+00 // azi =      60 ele =        42 
4.594e+00 // azi =      60 ele =        45 
3.912e+00 // azi =      60 ele =        48 
3.854e+00 // azi =      60 ele =        51 
4.113e+00 // azi =      60 ele =        54 
4.146e+00 // azi =      60 ele =        57 
4.186e+00 // azi =      60 ele =        60 
3.900e+00 // azi =      60 ele =        63 
3.953e+00 // azi =      60 ele =        66 
3.964e+00 // azi =      60 ele =        69 
3.903e+00 // azi =      60 ele =        72 
3.828e+00 // azi =      60 ele =        75 
3.868e+00 // azi =      60 ele =        78 
3.713e+00 // azi =      60 ele =        81 
3.509e+00 // azi =      60 ele =        84 
3.229e+00 // azi =      60 ele =        87 
2.830e+00 // azi =      60 ele =        90 
4.345e+00 // azi =      64 ele =         0 
4.405e+00 // azi =      64 ele =         3 
4.499e+00 // azi =      64 ele =         6 
4.621e+00 // azi =      64 ele =         9 
5.134e+00 // azi =      64 ele =        12 
5.180e+00 // azi =      64 ele =        15 
5.190e+00 // azi =      64 ele =        18 
5.945e+00 // azi =      64 ele =        21 
5.203e+00 // azi =      64 ele =        24 
5.166e+00 // azi =      64 ele =        27 
5.101e+00 // azi =      64 ele =        30 
5.127e+00 // azi =      64 ele =        33 
4.646e+00 // azi =      64 ele =        36 
4.694e+00 // azi =      64 ele =        39 
4.628e+00 // azi =      64 ele =        42 
4.553e+00 // azi =      64 ele =        45 
4.233e+00 // azi =      64 ele =        48 
4.212e+00 // azi =      64 ele =        51 
3.895e+00 // azi =      64 ele =        54 
4.102e+00 // azi =      64 ele =        57 
3.743e+00 // azi =      64 ele =        60 
3.759e+00 // azi =      64 ele =        63 
3.763e+00 // azi =      64 ele =        66 
3.763e+00 // azi =      64 ele =        69 
3.760e+00 // azi =      64 ele =        72 
3.746e+00 // azi =      64 ele =        75 
3.455e+00 // azi =      64 ele =        78 
3.352e+00 // azi =      64 ele =        81 
3.224e+00 // azi =      64 ele =        84 
3.055e+00 // azi =      64 ele =        87 
2.830e+00 // azi =      64 ele =        90 
3.216e+00 // azi =      68 ele =         0 
3.290e+00 // azi =      68 ele =         3 
3.718e+00 // azi =      68 ele =         6 
3.863e+00 // azi =      68 ele =         9 
4.568e+00 // azi =      68 ele =        12 
4.649e+00 // azi =      68 ele =        15 
4.508e+00 // azi =      68 ele =        18 
4.470e+00 // azi =      68 ele =        21 
4.862e+00 // azi =      68 ele =        24 
4.813e+00 // azi =      68 ele =        27 
4.806e+00 // azi =      68 ele =        30 
4.436e+00 // azi =      68 ele =        33 
4.467e+00 // azi =      68 ele =        36 
4.459e+00 // azi =      68 ele =        39 
4.338e+00 // azi =      68 ele =        42 
4.277e+00 // azi =      68 ele =        45 
4.226e+00 // azi =      68 ele =        48 
4.200e+00 // azi =      68 ele =        51 
3.903e+00 // azi =      68 ele =        54 
3.479e+00 // azi =      68 ele =        57 
3.655e+00 // azi =      68 ele =        60 
3.617e+00 // azi =      68 ele =        63 
3.591e+00 // azi =      68 ele =        66 
3.581e+00 // azi =      68 ele =        69 
3.624e+00 // azi =      68 ele =        72 
3.663e+00 // azi =      68 ele =        75 
3.414e+00 // azi =      68 ele =        78 
3.333e+00 // azi =      68 ele =        81 
3.217e+00 // azi =      68 ele =        84 
3.054e+00 // azi =      68 ele =        87 
2.830e+00 // azi =      68 ele =        90 
3.738e+00 // azi =      72 ele =         0 
3.739e+00 // azi =      72 ele =         3 
3.864e+00 // azi =      72 ele =         6 
3.862e+00 // azi =      72 ele =         9 
4.686e+00 // azi =      72 ele =        12 
4.856e+00 // azi =      72 ele =        15 
4.808e+00 // azi =      72 ele =        18 
4.510e+00 // azi =      72 ele =        21 
4.737e+00 // azi =      72 ele =        24 
4.688e+00 // azi =      72 ele =        27 
4.735e+00 // azi =      72 ele =        30 
4.487e+00 // azi =      72 ele =        33 
4.549e+00 // azi =      72 ele =        36 
4.525e+00 // azi =      72 ele =        39 
4.555e+00 // azi =      72 ele =        42 
4.443e+00 // azi =      72 ele =        45 
4.193e+00 // azi =      72 ele =        48 
4.159e+00 // azi =      72 ele =        51 
3.631e+00 // azi =      72 ele =        54 
3.504e+00 // azi =      72 ele =        57 
3.577e+00 // azi =      72 ele =        60 
3.505e+00 // azi =      72 ele =        63 
3.441e+00 // azi =      72 ele =        66 
3.423e+00 // azi =      72 ele =        69 
3.502e+00 // azi =      72 ele =        72 
3.584e+00 // azi =      72 ele =        75 
3.374e+00 // azi =      72 ele =        78 
3.315e+00 // azi =      72 ele =        81 
3.210e+00 // azi =      72 ele =        84 
3.052e+00 // azi =      72 ele =        87 
2.830e+00 // azi =      72 ele =        90 
3.547e+00 // azi =      76 ele =         0 
3.334e+00 // azi =      76 ele =         3 
3.356e+00 // azi =      76 ele =         6 
4.036e+00 // azi =      76 ele =         9 
4.970e+00 // azi =      76 ele =        12 
5.482e+00 // azi =      76 ele =        15 
5.102e+00 // azi =      76 ele =        18 
4.957e+00 // azi =      76 ele =        21 
4.381e+00 // azi =      76 ele =        24 
4.430e+00 // azi =      76 ele =        27 
4.537e+00 // azi =      76 ele =        30 
4.720e+00 // azi =      76 ele =        33 
4.731e+00 // azi =      76 ele =        36 
4.620e+00 // azi =      76 ele =        39 
4.576e+00 // azi =      76 ele =        42 
4.425e+00 // azi =      76 ele =        45 
4.229e+00 // azi =      76 ele =        48 
4.009e+00 // azi =      76 ele =        51 
3.686e+00 // azi =      76 ele =        54 
3.528e+00 // azi =      76 ele =        57 
3.363e+00 // azi =      76 ele =        60 
3.409e+00 // azi =      76 ele =        63 
3.317e+00 // azi =      76 ele =        66 
3.306e+00 // azi =      76 ele =        69 
3.395e+00 // azi =      76 ele =        72 
3.511e+00 // azi =      76 ele =        75 
3.337e+00 // azi =      76 ele =        78 
3.296e+00 // azi =      76 ele =        81 
3.202e+00 // azi =      76 ele =        84 
3.050e+00 // azi =      76 ele =        87 
2.830e+00 // azi =      76 ele =        90 
3.502e+00 // azi =      80 ele =         0 
3.315e+00 // azi =      80 ele =         3 
3.352e+00 // azi =      80 ele =         6 
4.010e+00 // azi =      80 ele =         9 
4.767e+00 // azi =      80 ele =        12 
5.488e+00 // azi =      80 ele =        15 
5.459e+00 // azi =      80 ele =        18 
4.988e+00 // azi =      80 ele =        21 
4.411e+00 // azi =      80 ele =        24 
4.463e+00 // azi =      80 ele =        27 
4.587e+00 // azi =      80 ele =        30 
4.753e+00 // azi =      80 ele =        33 
4.849e+00 // azi =      80 ele =        36 
4.731e+00 // azi =      80 ele =        39 
4.595e+00 // azi =      80 ele =        42 
4.442e+00 // azi =      80 ele =        45 
4.249e+00 // azi =      80 ele =        48 
4.159e+00 // azi =      80 ele =        51 
3.722e+00 // azi =      80 ele =        54 
3.546e+00 // azi =      80 ele =        57 
3.356e+00 // azi =      80 ele =        60 
3.179e+00 // azi =      80 ele =        63 
3.218e+00 // azi =      80 ele =        66 
3.220e+00 // azi =      80 ele =        69 
3.298e+00 // azi =      80 ele =        72 
3.264e+00 // azi =      80 ele =        75 
3.302e+00 // azi =      80 ele =        78 
3.278e+00 // azi =      80 ele =        81 
3.195e+00 // azi =      80 ele =        84 
3.049e+00 // azi =      80 ele =        87 
2.830e+00 // azi =      80 ele =        90 
3.512e+00 // azi =      84 ele =         0 
3.491e+00 // azi =      84 ele =         3 
3.636e+00 // azi =      84 ele =         6 
4.006e+00 // azi =      84 ele =         9 
4.456e+00 // azi =      84 ele =        12 
5.464e+00 // azi =      84 ele =        15 
5.331e+00 // azi =      84 ele =        18 
5.131e+00 // azi =      84 ele =        21 
4.964e+00 // azi =      84 ele =        24 
4.649e+00 // azi =      84 ele =        27 
4.723e+00 // azi =      84 ele =        30 
4.809e+00 // azi =      84 ele =        33 
4.866e+00 // azi =      84 ele =        36 
4.743e+00 // azi =      84 ele =        39 
4.622e+00 // azi =      84 ele =        42 
4.489e+00 // azi =      84 ele =        45 
4.380e+00 // azi =      84 ele =        48 
4.336e+00 // azi =      84 ele =        51 
3.759e+00 // azi =      84 ele =        54 
3.560e+00 // azi =      84 ele =        57 
3.345e+00 // azi =      84 ele =        60 
3.134e+00 // azi =      84 ele =        63 
3.059e+00 // azi =      84 ele =        66 
3.012e+00 // azi =      84 ele =        69 
3.206e+00 // azi =      84 ele =        72 
3.214e+00 // azi =      84 ele =        75 