FoamFile
{
    version     2.0;
    format      ascii;
    class       dictionary;
    location    "constant";
    object      LookupTableInjection;
}
ele
List<scalar>
 2790
(
0.000e+00 // azi =       0 ele =         0 
3.000e+00 // azi =       0 ele =         3 
6.000e+00 // azi =       0 ele =         6 
9.000e+00 // azi =       0 ele =         9 
1.200e+01 // azi =       0 ele =        12 
1.500e+01 // azi =       0 ele =        15 
1.800e+01 // azi =       0 ele =        18 
2.100e+01 // azi =       0 ele =        21 
2.400e+01 // azi =       0 ele =        24 
2.700e+01 // azi =       0 ele =        27 
3.000e+01 // azi =       0 ele =        30 
3.300e+01 // azi =       0 ele =        33 
3.600e+01 // azi =       0 ele =        36 
3.900e+01 // azi =       0 ele =        39 
4.200e+01 // azi =       0 ele =        42 
4.500e+01 // azi =       0 ele =        45 
4.800e+01 // azi =       0 ele =        48 
5.100e+01 // azi =       0 ele =        51 
5.400e+01 // azi =       0 ele =        54 
5.700e+01 // azi =       0 ele =        57 
6.000e+01 // azi =       0 ele =        60 
6.300e+01 // azi =       0 ele =        63 
6.600e+01 // azi =       0 ele =        66 
6.900e+01 // azi =       0 ele =        69 
7.200e+01 // azi =       0 ele =        72 
7.500e+01 // azi =       0 ele =        75 
7.800e+01 // azi =       0 ele =        78 
8.100e+01 // azi =       0 ele =        81 
8.400e+01 // azi =       0 ele =        84 
8.700e+01 // azi =       0 ele =        87 
9.000e+01 // azi =       0 ele =        90 
0.000e+00 // azi =       4 ele =         0 
3.000e+00 // azi =       4 ele =         3 
6.000e+00 // azi =       4 ele =         6 
9.000e+00 // azi =       4 ele =         9 
1.200e+01 // azi =       4 ele =        12 
1.500e+01 // azi =       4 ele =        15 
1.800e+01 // azi =       4 ele =        18 
2.100e+01 // azi =       4 ele =        21 
2.400e+01 // azi =       4 ele =        24 
2.700e+01 // azi =       4 ele =        27 
3.000e+01 // azi =       4 ele =        30 
3.300e+01 // azi =       4 ele =        33 
3.600e+01 // azi =       4 ele =        36 
3.900e+01 // azi =       4 ele =        39 
4.200e+01 // azi =       4 ele =        42 
4.500e+01 // azi =       4 ele =        45 
4.800e+01 // azi =       4 ele =        48 
5.100e+01 // azi =       4 ele =        51 
5.400e+01 // azi =       4 ele =        54 
5.700e+01 // azi =       4 ele =        57 
6.000e+01 // azi =       4 ele =        60 
6.300e+01 // azi =       4 ele =        63 
6.600e+01 // azi =       4 ele =        66 
6.900e+01 // azi =       4 ele =        69 
7.200e+01 // azi =       4 ele =        72 
7.500e+01 // azi =       4 ele =        75 
7.800e+01 // azi =       4 ele =        78 
8.100e+01 // azi =       4 ele =        81 
8.400e+01 // azi =       4 ele =        84 
8.700e+01 // azi =       4 ele =        87 
9.000e+01 // azi =       4 ele =        90 
0.000e+00 // azi =       8 ele =         0 
3.000e+00 // azi =       8 ele =         3 
6.000e+00 // azi =       8 ele =         6 
9.000e+00 // azi =       8 ele =         9 
1.200e+01 // azi =       8 ele =        12 
1.500e+01 // azi =       8 ele =        15 
1.800e+01 // azi =       8 ele =        18 
2.100e+01 // azi =       8 ele =        21 
2.400e+01 // azi =       8 ele =        24 
2.700e+01 // azi =       8 ele =        27 
3.000e+01 // azi =       8 ele =        30 
3.300e+01 // azi =       8 ele =        33 
3.600e+01 // azi =       8 ele =        36 
3.900e+01 // azi =       8 ele =        39 
4.200e+01 // azi =       8 ele =        42 
4.500e+01 // azi =       8 ele =        45 
4.800e+01 // azi =       8 ele =        48 
5.100e+01 // azi =       8 ele =        51 
5.400e+01 // azi =       8 ele =        54 
5.700e+01 // azi =       8 ele =        57 
6.000e+01 // azi =       8 ele =        60 
6.300e+01 // azi =       8 ele =        63 
6.600e+01 // azi =       8 ele =        66 
6.900e+01 // azi =       8 ele =        69 
7.200e+01 // azi =       8 ele =        72 
7.500e+01 // azi =       8 ele =        75 
7.800e+01 // azi =       8 ele =        78 
8.100e+01 // azi =       8 ele =        81 
8.400e+01 // azi =       8 ele =        84 
8.700e+01 // azi =       8 ele =        87 
9.000e+01 // azi =       8 ele =        90 
0.000e+00 // azi =      12 ele =         0 
3.000e+00 // azi =      12 ele =         3 
6.000e+00 // azi =      12 ele =         6 
9.000e+00 // azi =      12 ele =         9 
1.200e+01 // azi =      12 ele =        12 
1.500e+01 // azi =      12 ele =        15 
1.800e+01 // azi =      12 ele =        18 
2.100e+01 // azi =      12 ele =        21 
2.400e+01 // azi =      12 ele =        24 
2.700e+01 // azi =      12 ele =        27 
3.000e+01 // azi =      12 ele =        30 
3.300e+01 // azi =      12 ele =        33 
3.600e+01 // azi =      12 ele =        36 
3.900e+01 // azi =      12 ele =        39 
4.200e+01 // azi =      12 ele =        42 
4.500e+01 // azi =      12 ele =        45 
4.800e+01 // azi =      12 ele =        48 
5.100e+01 // azi =      12 ele =        51 
5.400e+01 // azi =      12 ele =        54 
5.700e+01 // azi =      12 ele =        57 
6.000e+01 // azi =      12 ele =        60 
6.300e+01 // azi =      12 ele =        63 
6.600e+01 // azi =      12 ele =        66 
6.900e+01 // azi =      12 ele =        69 
7.200e+01 // azi =      12 ele =        72 
7.500e+01 // azi =      12 ele =        75 
7.800e+01 // azi =      12 ele =        78 
8.100e+01 // azi =      12 ele =        81 
8.400e+01 // azi =      12 ele =        84 
8.700e+01 // azi =      12 ele =        87 
9.000e+01 // azi =      12 ele =        90 
0.000e+00 // azi =      16 ele =         0 
3.000e+00 // azi =      16 ele =         3 
6.000e+00 // azi =      16 ele =         6 
9.000e+00 // azi =      16 ele =         9 
1.200e+01 // azi =      16 ele =        12 
1.500e+01 // azi =      16 ele =        15 
1.800e+01 // azi =      16 ele =        18 
2.100e+01 // azi =      16 ele =        21 
2.400e+01 // azi =      16 ele =        24 
2.700e+01 // azi =      16 ele =        27 
3.000e+01 // azi =      16 ele =        30 
3.300e+01 // azi =      16 ele =        33 
3.600e+01 // azi =      16 ele =        36 
3.900e+01 // azi =      16 ele =        39 
4.200e+01 // azi =      16 ele =        42 
4.500e+01 // azi =      16 ele =        45 
4.800e+01 // azi =      16 ele =        48 
5.100e+01 // azi =      16 ele =        51 
5.400e+01 // azi =      16 ele =        54 
5.700e+01 // azi =      16 ele =        57 
6.000e+01 // azi =      16 ele =        60 
6.300e+01 // azi =      16 ele =        63 
6.600e+01 // azi =      16 ele =        66 
6.900e+01 // azi =      16 ele =        69 
7.200e+01 // azi =      16 ele =        72 
7.500e+01 // azi =      16 ele =        75 
7.800e+01 // azi =      16 ele =        78 
8.100e+01 // azi =      16 ele =        81 
8.400e+01 // azi =      16 ele =        84 
8.700e+01 // azi =      16 ele =        87 
9.000e+01 // azi =      16 ele =        90 
0.000e+00 // azi =      20 ele =         0 
3.000e+00 // azi =      20 ele =         3 
6.000e+00 // azi =      20 ele =         6 
9.000e+00 // azi =      20 ele =         9 
1.200e+01 // azi =      20 ele =        12 
1.500e+01 // azi =      20 ele =        15 
1.800e+01 // azi =      20 ele =        18 
2.100e+01 // azi =      20 ele =        21 
2.400e+01 // azi =      20 ele =        24 
2.700e+01 // azi =      20 ele =        27 
3.000e+01 // azi =      20 ele =        30 
3.300e+01 // azi =      20 ele =        33 
3.600e+01 // azi =      20 ele =        36 
3.900e+01 // azi =      20 ele =        39 
4.200e+01 // azi =      20 ele =        42 
4.500e+01 // azi =      20 ele =        45 
4.800e+01 // azi =      20 ele =        48 
5.100e+01 // azi =      20 ele =        51 
5.400e+01 // azi =      20 ele =        54 
5.700e+01 // azi =      20 ele =        57 
6.000e+01 // azi =      20 ele =        60 
6.300e+01 // azi =      20 ele =        63 
6.600e+01 // azi =      20 ele =        66 
6.900e+01 // azi =      20 ele =        69 
7.200e+01 // azi =      20 ele =        72 
7.500e+01 // azi =      20 ele =        75 
7.800e+01 // azi =      20 ele =        78 
8.100e+01 // azi =      20 ele =        81 
8.400e+01 // azi =      20 ele =        84 
8.700e+01 // azi =      20 ele =        87 
9.000e+01 // azi =      20 ele =        90 
0.000e+00 // azi =      24 ele =         0 
3.000e+00 // azi =      24 ele =         3 
6.000e+00 // azi =      24 ele =         6 
9.000e+00 // azi =      24 ele =         9 
1.200e+01 // azi =      24 ele =        12 
1.500e+01 // azi =      24 ele =        15 
1.800e+01 // azi =      24 ele =        18 
2.100e+01 // azi =      24 ele =        21 
2.400e+01 // azi =      24 ele =        24 
2.700e+01 // azi =      24 ele =        27 
3.000e+01 // azi =      24 ele =        30 
3.300e+01 // azi =      24 ele =        33 
3.600e+01 // azi =      24 ele =        36 
3.900e+01 // azi =      24 ele =        39 
4.200e+01 // azi =      24 ele =        42 
4.500e+01 // azi =      24 ele =        45 
4.800e+01 // azi =      24 ele =        48 
5.100e+01 // azi =      24 ele =        51 
5.400e+01 // azi =      24 ele =        54 
5.700e+01 // azi =      24 ele =        57 
6.000e+01 // azi =      24 ele =        60 
6.300e+01 // azi =      24 ele =        63 
6.600e+01 // azi =      24 ele =        66 
6.900e+01 // azi =      24 ele =        69 
7.200e+01 // azi =      24 ele =        72 
7.500e+01 // azi =      24 ele =        75 
7.800e+01 // azi =      24 ele =        78 
8.100e+01 // azi =      24 ele =        81 
8.400e+01 // azi =      24 ele =        84 
8.700e+01 // azi =      24 ele =        87 
9.000e+01 // azi =      24 ele =        90 
0.000e+00 // azi =      28 ele =         0 
3.000e+00 // azi =      28 ele =         3 
6.000e+00 // azi =      28 ele =         6 
9.000e+00 // azi =      28 ele =         9 
1.200e+01 // azi =      28 ele =        12 
1.500e+01 // azi =      28 ele =        15 
1.800e+01 // azi =      28 ele =        18 
2.100e+01 // azi =      28 ele =        21 
2.400e+01 // azi =      28 ele =        24 
2.700e+01 // azi =      28 ele =        27 
3.000e+01 // azi =      28 ele =        30 
3.300e+01 // azi =      28 ele =        33 
3.600e+01 // azi =      28 ele =        36 
3.900e+01 // azi =      28 ele =        39 
4.200e+01 // azi =      28 ele =        42 
4.500e+01 // azi =      28 ele =        45 
4.800e+01 // azi =      28 ele =        48 
5.100e+01 // azi =      28 ele =        51 
5.400e+01 // azi =      28 ele =        54 
5.700e+01 // azi =      28 ele =        57 
6.000e+01 // azi =      28 ele =        60 
6.300e+01 // azi =      28 ele =        63 
6.600e+01 // azi =      28 ele =        66 
6.900e+01 // azi =      28 ele =        69 
7.200e+01 // azi =      28 ele =        72 
7.500e+01 // azi =      28 ele =        75 
7.800e+01 // azi =      28 ele =        78 
8.100e+01 // azi =      28 ele =        81 
8.400e+01 // azi =      28 ele =        84 
8.700e+01 // azi =      28 ele =        87 
9.000e+01 // azi =      28 ele =        90 
0.000e+00 // azi =      32 ele =         0 
3.000e+00 // azi =      32 ele =         3 
6.000e+00 // azi =      32 ele =         6 
9.000e+00 // azi =      32 ele =         9 
1.200e+01 // azi =      32 ele =        12 
1.500e+01 // azi =      32 ele =        15 
1.800e+01 // azi =      32 ele =        18 
2.100e+01 // azi =      32 ele =        21 
2.400e+01 // azi =      32 ele =        24 
2.700e+01 // azi =      32 ele =        27 
3.000e+01 // azi =      32 ele =        30 
3.300e+01 // azi =      32 ele =        33 
3.600e+01 // azi =      32 ele =        36 
3.900e+01 // azi =      32 ele =        39 
4.200e+01 // azi =      32 ele =        42 
4.500e+01 // azi =      32 ele =        45 
4.800e+01 // azi =      32 ele =        48 
5.100e+01 // azi =      32 ele =        51 
5.400e+01 // azi =      32 ele =        54 
5.700e+01 // azi =      32 ele =        57 
6.000e+01 // azi =      32 ele =        60 
6.300e+01 // azi =      32 ele =        63 
6.600e+01 // azi =      32 ele =        66 
6.900e+01 // azi =      32 ele =        69 
7.200e+01 // azi =      32 ele =        72 
7.500e+01 // azi =      32 ele =        75 
7.800e+01 // azi =      32 ele =        78 
8.100e+01 // azi =      32 ele =        81 
8.400e+01 // azi =      32 ele =        84 
8.700e+01 // azi =      32 ele =        87 
9.000e+01 // azi =      32 ele =        90 
0.000e+00 // azi =      36 ele =         0 
3.000e+00 // azi =      36 ele =         3 
6.000e+00 // azi =      36 ele =         6 
9.000e+00 // azi =      36 ele =         9 
1.200e+01 // azi =      36 ele =        12 
1.500e+01 // azi =      36 ele =        15 
1.800e+01 // azi =      36 ele =        18 
2.100e+01 // azi =      36 ele =        21 
2.400e+01 // azi =      36 ele =        24 
2.700e+01 // azi =      36 ele =        27 
3.000e+01 // azi =      36 ele =        30 
3.300e+01 // azi =      36 ele =        33 
3.600e+01 // azi =      36 ele =        36 
3.900e+01 // azi =      36 ele =        39 
4.200e+01 // azi =      36 ele =        42 
4.500e+01 // azi =      36 ele =        45 
4.800e+01 // azi =      36 ele =        48 
5.100e+01 // azi =      36 ele =        51 
5.400e+01 // azi =      36 ele =        54 
5.700e+01 // azi =      36 ele =        57 
6.000e+01 // azi =      36 ele =        60 
6.300e+01 // azi =      36 ele =        63 
6.600e+01 // azi =      36 ele =        66 
6.900e+01 // azi =      36 ele =        69 
7.200e+01 // azi =      36 ele =        72 
7.500e+01 // azi =      36 ele =        75 
7.800e+01 // azi =      36 ele =        78 
8.100e+01 // azi =      36 ele =        81 
8.400e+01 // azi =      36 ele =        84 
8.700e+01 // azi =      36 ele =        87 
9.000e+01 // azi =      36 ele =        90 
0.000e+00 // azi =      40 ele =         0 
3.000e+00 // azi =      40 ele =         3 
6.000e+00 // azi =      40 ele =         6 
9.000e+00 // azi =      40 ele =         9 
1.200e+01 // azi =      40 ele =        12 
1.500e+01 // azi =      40 ele =        15 
1.800e+01 // azi =      40 ele =        18 
2.100e+01 // azi =      40 ele =        21 
2.400e+01 // azi =      40 ele =        24 
2.700e+01 // azi =      40 ele =        27 
3.000e+01 // azi =      40 ele =        30 
3.300e+01 // azi =      40 ele =        33 
3.600e+01 // azi =      40 ele =        36 
3.900e+01 // azi =      40 ele =        39 
4.200e+01 // azi =      40 ele =        42 
4.500e+01 // azi =      40 ele =        45 
4.800e+01 // azi =      40 ele =        48 
5.100e+01 // azi =      40 ele =        51 
5.400e+01 // azi =      40 ele =        54 
5.700e+01 // azi =      40 ele =        57 
6.000e+01 // azi =      40 ele =        60 
6.300e+01 // azi =      40 ele =        63 
6.600e+01 // azi =      40 ele =        66 
6.900e+01 // azi =      40 ele =        69 
7.200e+01 // azi =      40 ele =        72 
7.500e+01 // azi =      40 ele =        75 
7.800e+01 // azi =      40 ele =        78 
8.100e+01 // azi =      40 ele =        81 
8.400e+01 // azi =      40 ele =        84 
8.700e+01 // azi =      40 ele =        87 
9.000e+01 // azi =      40 ele =        90 
0.000e+00 // azi =      44 ele =         0 
3.000e+00 // azi =      44 ele =         3 
6.000e+00 // azi =      44 ele =         6 
9.000e+00 // azi =      44 ele =         9 
1.200e+01 // azi =      44 ele =        12 
1.500e+01 // azi =      44 ele =        15 
1.800e+01 // azi =      44 ele =        18 
2.100e+01 // azi =      44 ele =        21 
2.400e+01 // azi =      44 ele =        24 
2.700e+01 // azi =      44 ele =        27 
3.000e+01 // azi =      44 ele =        30 
3.300e+01 // azi =      44 ele =        33 
3.600e+01 // azi =      44 ele =        36 
3.900e+01 // azi =      44 ele =        39 
4.200e+01 // azi =      44 ele =        42 
4.500e+01 // azi =      44 ele =        45 
4.800e+01 // azi =      44 ele =        48 
5.100e+01 // azi =      44 ele =        51 
5.400e+01 // azi =      44 ele =        54 
5.700e+01 // azi =      44 ele =        57 
6.000e+01 // azi =      44 ele =        60 
6.300e+01 // azi =      44 ele =        63 
6.600e+01 // azi =      44 ele =        66 
6.900e+01 // azi =      44 ele =        69 
7.200e+01 // azi =      44 ele =        72 
7.500e+01 // azi =      44 ele =        75 
7.800e+01 // azi =      44 ele =        78 
8.100e+01 // azi =      44 ele =        81 
8.400e+01 // azi =      44 ele =        84 
8.700e+01 // azi =      44 ele =        87 
9.000e+01 // azi =      44 ele =        90 
0.000e+00 // azi =      48 ele =         0 
3.000e+00 // azi =      48 ele =         3 
6.000e+00 // azi =      48 ele =         6 
9.000e+00 // azi =      48 ele =         9 
1.200e+01 // azi =      48 ele =        12 
1.500e+01 // azi =      48 ele =        15 
1.800e+01 // azi =      48 ele =        18 
2.100e+01 // azi =      48 ele =        21 
2.400e+01 // azi =      48 ele =        24 
2.700e+01 // azi =      48 ele =        27 
3.000e+01 // azi =      48 ele =        30 
3.300e+01 // azi =      48 ele =        33 
3.600e+01 // azi =      48 ele =        36 
3.900e+01 // azi =      48 ele =        39 
4.200e+01 // azi =      48 ele =        42 
4.500e+01 // azi =      48 ele =        45 
4.800e+01 // azi =      48 ele =        48 
5.100e+01 // azi =      48 ele =        51 
5.400e+01 // azi =      48 ele =        54 
5.700e+01 // azi =      48 ele =        57 
6.000e+01 // azi =      48 ele =        60 
6.300e+01 // azi =      48 ele =        63 
6.600e+01 // azi =      48 ele =        66 
6.900e+01 // azi =      48 ele =        69 
7.200e+01 // azi =      48 ele =        72 
7.500e+01 // azi =      48 ele =        75 
7.800e+01 // azi =      48 ele =        78 
8.100e+01 // azi =      48 ele =        81 
8.400e+01 // azi =      48 ele =        84 
8.700e+01 // azi =      48 ele =        87 
9.000e+01 // azi =      48 ele =        90 
0.000e+00 // azi =      52 ele =         0 
3.000e+00 // azi =      52 ele =         3 
6.000e+00 // azi =      52 ele =         6 
9.000e+00 // azi =      52 ele =         9 
1.200e+01 // azi =      52 ele =        12 
1.500e+01 // azi =      52 ele =        15 
1.800e+01 // azi =      52 ele =        18 
2.100e+01 // azi =      52 ele =        21 
2.400e+01 // azi =      52 ele =        24 
2.700e+01 // azi =      52 ele =        27 
3.000e+01 // azi =      52 ele =        30 
3.300e+01 // azi =      52 ele =        33 
3.600e+01 // azi =      52 ele =        36 
3.900e+01 // azi =      52 ele =        39 
4.200e+01 // azi =      52 ele =        42 
4.500e+01 // azi =      52 ele =        45 
4.800e+01 // azi =      52 ele =        48 
5.100e+01 // azi =      52 ele =        51 
5.400e+01 // azi =      52 ele =        54 
5.700e+01 // azi =      52 ele =        57 
6.000e+01 // azi =      52 ele =        60 
6.300e+01 // azi =      52 ele =        63 
6.600e+01 // azi =      52 ele =        66 
6.900e+01 // azi =      52 ele =        69 
7.200e+01 // azi =      52 ele =        72 
7.500e+01 // azi =      52 ele =        75 
7.800e+01 // azi =      52 ele =        78 
8.100e+01 // azi =      52 ele =        81 
8.400e+01 // azi =      52 ele =        84 
8.700e+01 // azi =      52 ele =        87 
9.000e+01 // azi =      52 ele =        90 
0.000e+00 // azi =      56 ele =         0 
3.000e+00 // azi =      56 ele =         3 
6.000e+00 // azi =      56 ele =         6 
9.000e+00 // azi =      56 ele =         9 
1.200e+01 // azi =      56 ele =        12 
1.500e+01 // azi =      56 ele =        15 
1.800e+01 // azi =      56 ele =        18 
2.100e+01 // azi =      56 ele =        21 
2.400e+01 // azi =      56 ele =        24 
2.700e+01 // azi =      56 ele =        27 
3.000e+01 // azi =      56 ele =        30 
3.300e+01 // azi =      56 ele =        33 
3.600e+01 // azi =      56 ele =        36 
3.900e+01 // azi =      56 ele =        39 
4.200e+01 // azi =      56 ele =        42 
4.500e+01 // azi =      56 ele =        45 
4.800e+01 // azi =      56 ele =        48 
5.100e+01 // azi =      56 ele =        51 
5.400e+01 // azi =      56 ele =        54 
5.700e+01 // azi =      56 ele =        57 
6.000e+01 // azi =      56 ele =        60 
6.300e+01 // azi =      56 ele =        63 
6.600e+01 // azi =      56 ele =        66 
6.900e+01 // azi =      56 ele =        69 
7.200e+01 // azi =      56 ele =        72 
7.500e+01 // azi =      56 ele =        75 
7.800e+01 // azi =      56 ele =        78 
8.100e+01 // azi =      56 ele =        81 
8.400e+01 // azi =      56 ele =        84 
8.700e+01 // azi =      56 ele =        87 
9.000e+01 // azi =      56 ele =        90 
0.000e+00 // azi =      60 ele =         0 
3.000e+00 // azi =      60 ele =         3 
6.000e+00 // azi =      60 ele =         6 
9.000e+00 // azi =      60 ele =         9 
1.200e+01 // azi =      60 ele =        12 
1.500e+01 // azi =      60 ele =        15 
1.800e+01 // azi =      60 ele =        18 
2.100e+01 // azi =      60 ele =        21 
2.400e+01 // azi =      60 ele =        24 
2.700e+01 // azi =      60 ele =        27 
3.000e+01 // azi =      60 ele =        30 
3.300e+01 // azi =      60 ele =        33 
3.600e+01 // azi =      60 ele =        36 
3.900e+01 // azi =      60 ele =        39 
4.200e+01 // azi =      60 ele =        42 
4.500e+01 // azi =      60 ele =        45 
4.800e+01 // azi =      60 ele =        48 
5.100e+01 // azi =      60 ele =        51 
5.400e+01 // azi =      60 ele =        54 
5.700e+01 // azi =      60 ele =        57 
6.000e+01 // azi =      60 ele =        60 
6.300e+01 // azi =      60 ele =        63 
6.600e+01 // azi =      60 ele =        66 
6.900e+01 // azi =      60 ele =        69 
7.200e+01 // azi =      60 ele =        72 
7.500e+01 // azi =      60 ele =        75 
7.800e+01 // azi =      60 ele =        78 
8.100e+01 // azi =      60 ele =        81 
8.400e+01 // azi =      60 ele =        84 
8.700e+01 // azi =      60 ele =        87 
9.000e+01 // azi =      60 ele =        90 
0.000e+00 // azi =      64 ele =         0 
3.000e+00 // azi =      64 ele =         3 
6.000e+00 // azi =      64 ele =         6 
9.000e+00 // azi =      64 ele =         9 
1.200e+01 // azi =      64 ele =        12 
1.500e+01 // azi =      64 ele =        15 
1.800e+01 // azi =      64 ele =        18 
2.100e+01 // azi =      64 ele =        21 
2.400e+01 // azi =      64 ele =        24 
2.700e+01 // azi =      64 ele =        27 
3.000e+01 // azi =      64 ele =        30 
3.300e+01 // azi =      64 ele =        33 
3.600e+01 // azi =      64 ele =        36 
3.900e+01 // azi =      64 ele =        39 
4.200e+01 // azi =      64 ele =        42 
4.500e+01 // azi =      64 ele =        45 
4.800e+01 // azi =      64 ele =        48 
5.100e+01 // azi =      64 ele =        51 
5.400e+01 // azi =      64 ele =        54 
5.700e+01 // azi =      64 ele =        57 
6.000e+01 // azi =      64 ele =        60 
6.300e+01 // azi =      64 ele =        63 
6.600e+01 // azi =      64 ele =        66 
6.900e+01 // azi =      64 ele =        69 
7.200e+01 // azi =      64 ele =        72 
7.500e+01 // azi =      64 ele =        75 
7.800e+01 // azi =      64 ele =        78 
8.100e+01 // azi =      64 ele =        81 
8.400e+01 // azi =      64 ele =        84 
8.700e+01 // azi =      64 ele =        87 
9.000e+01 // azi =      64 ele =        90 
0.000e+00 // azi =      68 ele =         0 
3.000e+00 // azi =      68 ele =         3 
6.000e+00 // azi =      68 ele =         6 
9.000e+00 // azi =      68 ele =         9 
1.200e+01 // azi =      68 ele =        12 
1.500e+01 // azi =      68 ele =        15 
1.800e+01 // azi =      68 ele =        18 
2.100e+01 // azi =      68 ele =        21 
2.400e+01 // azi =      68 ele =        24 
2.700e+01 // azi =      68 ele =        27 
3.000e+01 // azi =      68 ele =        30 
3.300e+01 // azi =      68 ele =        33 
3.600e+01 // azi =      68 ele =        36 
3.900e+01 // azi =      68 ele =        39 
4.200e+01 // azi =      68 ele =        42 
4.500e+01 // azi =      68 ele =        45 
4.800e+01 // azi =      68 ele =        48 
5.100e+01 // azi =      68 ele =        51 
5.400e+01 // azi =      68 ele =        54 
5.700e+01 // azi =      68 ele =        57 
6.000e+01 // azi =      68 ele =        60 
6.300e+01 // azi =      68 ele =        63 
6.600e+01 // azi =      68 ele =        66 
6.900e+01 // azi =      68 ele =        69 
7.200e+01 // azi =      68 ele =        72 
7.500e+01 // azi =      68 ele =        75 
7.800e+01 // azi =      68 ele =        78 
8.100e+01 // azi =      68 ele =        81 
8.400e+01 // azi =      68 ele =        84 
8.700e+01 // azi =      68 ele =        87 
9.000e+01 // azi =      68 ele =        90 
0.000e+00 // azi =      72 ele =         0 
3.000e+00 // azi =      72 ele =         3 
6.000e+00 // azi =      72 ele =         6 
9.000e+00 // azi =      72 ele =         9 
1.200e+01 // azi =      72 ele =        12 
1.500e+01 // azi =      72 ele =        15 
1.800e+01 // azi =      72 ele =        18 
2.100e+01 // azi =      72 ele =        21 
2.400e+01 // azi =      72 ele =        24 
2.700e+01 // azi =      72 ele =        27 
3.000e+01 // azi =      72 ele =        30 
3.300e+01 // azi =      72 ele =        33 
3.600e+01 // azi =      72 ele =        36 
3.900e+01 // azi =      72 ele =        39 
4.200e+01 // azi =      72 ele =        42 
4.500e+01 // azi =      72 ele =        45 
4.800e+01 // azi =      72 ele =        48 
5.100e+01 // azi =      72 ele =        51 
5.400e+01 // azi =      72 ele =        54 
5.700e+01 // azi =      72 ele =        57 
6.000e+01 // azi =      72 ele =        60 
6.300e+01 // azi =      72 ele =        63 
6.600e+01 // azi =      72 ele =        66 
6.900e+01 // azi =      72 ele =        69 
7.200e+01 // azi =      72 ele =        72 
7.500e+01 // azi =      72 ele =        75 
7.800e+01 // azi =      72 ele =        78 
8.100e+01 // azi =      72 ele =        81 
8.400e+01 // azi =      72 ele =        84 
8.700e+01 // azi =      72 ele =        87 
9.000e+01 // azi =      72 ele =        90 
0.000e+00 // azi =      76 ele =         0 
3.000e+00 // azi =      76 ele =         3 
6.000e+00 // azi =      76 ele =         6 
9.000e+00 // azi =      76 ele =         9 
1.200e+01 // azi =      76 ele =        12 
1.500e+01 // azi =      76 ele =        15 
1.800e+01 // azi =      76 ele =        18 
2.100e+01 // azi =      76 ele =        21 
2.400e+01 // azi =      76 ele =        24 
2.700e+01 // azi =      76 ele =        27 
3.000e+01 // azi =      76 ele =        30 
3.300e+01 // azi =      76 ele =        33 
3.600e+01 // azi =      76 ele =        36 
3.900e+01 // azi =      76 ele =        39 
4.200e+01 // azi =      76 ele =        42 
4.500e+01 // azi =      76 ele =        45 
4.800e+01 // azi =      76 ele =        48 
5.100e+01 // azi =      76 ele =        51 
5.400e+01 // azi =      76 ele =        54 
5.700e+01 // azi =      76 ele =        57 
6.000e+01 // azi =      76 ele =        60 
6.300e+01 // azi =      76 ele =        63 
6.600e+01 // azi =      76 ele =        66 
6.900e+01 // azi =      76 ele =        69 
7.200e+01 // azi =      76 ele =        72 
7.500e+01 // azi =      76 ele =        75 
7.800e+01 // azi =      76 ele =        78 
8.100e+01 // azi =      76 ele =        81 
8.400e+01 // azi =      76 ele =        84 
8.700e+01 // azi =      76 ele =        87 
9.000e+01 // azi =      76 ele =        90 
0.000e+00 // azi =      80 ele =         0 
3.000e+00 // azi =      80 ele =         3 
6.000e+00 // azi =      80 ele =         6 
9.000e+00 // azi =      80 ele =         9 
1.200e+01 // azi =      80 ele =        12 
1.500e+01 // azi =      80 ele =        15 
1.800e+01 // azi =      80 ele =        18 
2.100e+01 // azi =      80 ele =        21 
2.400e+01 // azi =      80 ele =        24 
2.700e+01 // azi =      80 ele =        27 
3.000e+01 // azi =      80 ele =        30 
3.300e+01 // azi =      80 ele =        33 
3.600e+01 // azi =      80 ele =        36 
3.900e+01 // azi =      80 ele =        39 
4.200e+01 // azi =      80 ele =        42 
4.500e+01 // azi =      80 ele =        45 
4.800e+01 // azi =      80 ele =        48 
5.100e+01 // azi =      80 ele =        51 
5.400e+01 // azi =      80 ele =        54 
5.700e+01 // azi =      80 ele =        57 
6.000e+01 // azi =      80 ele =        60 
6.300e+01 // azi =      80 ele =        63 
6.600e+01 // azi =      80 ele =        66 
6.900e+01 // azi =      80 ele =        69 
7.200e+01 // azi =      80 ele =        72 
7.500e+01 // azi =      80 ele =        75 
7.800e+01 // azi =      80 ele =        78 
8.100e+01 // azi =      80 ele =        81 
8.400e+01 // azi =      80 ele =        84 
8.700e+01 // azi =      80 ele =        87 
9.000e+01 // azi =      80 ele =        90 
0.000e+00 // azi =      84 ele =         0 
3.000e+00 // azi =      84 ele =         3 
6.000e+00 // azi =      84 ele =         6 
9.000e+00 // azi =      84 ele =         9 
1.200e+01 // azi =      84 ele =        12 
1.500e+01 // azi =      84 ele =        15 
1.800e+01 // azi =      84 ele =        18 
2.100e+01 // azi =      84 ele =        21 
2.400e+01 // azi =      84 ele =        24 
2.700e+01 // azi =      84 ele =        27 
3.000e+01 // azi =      84 ele =        30 
3.300e+01 // azi =      84 ele =        33 
3.600e+01 // azi =      84 ele =        36 
3.900e+01 // azi =      84 ele =        39 
4.200e+01 // azi =      84 ele =        42 
4.500e+01 // azi =      84 ele =        45 
4.800e+01 // azi =      84 ele =        48 
5.100e+01 // azi =      84 ele =        51 
5.400e+01 // azi =      84 ele =        54 
5.700e+01 // azi =      84 ele =        57 
6.000e+01 // azi =      84 ele =        60 
6.300e+01 // azi =      84 ele =        63 
6.600e+01 // azi =      84 ele =        66 
6.900e+01 // azi =      84 ele =        69 
7.200e+01 // azi =      84 ele =        72 
7.500e+01 // azi =      84 ele =        75 