FoamFile
{
    version     2.0;
    format      ascii;
    class       dictionary;
    location    "constant";
    object      LookupTableInjection;
}
avgFlux
List<scalar>
32760
(
1.187e+01 // azi =       0 ele =         0 
1.187e+01 // azi =       0 ele =         1 
1.186e+01 // azi =       0 ele =         2 
1.181e+01 // azi =       0 ele =         3 
1.168e+01 // azi =       0 ele =         4 
1.141e+01 // azi =       0 ele =         5 
1.180e+01 // azi =       0 ele =         6 
1.219e+01 // azi =       0 ele =         7 
1.261e+01 // azi =       0 ele =         8 
1.308e+01 // azi =       0 ele =         9 
1.363e+01 // azi =       0 ele =        10 
1.446e+01 // azi =       0 ele =        11 
1.520e+01 // azi =       0 ele =        12 
1.616e+01 // azi =       0 ele =        13 
1.751e+01 // azi =       0 ele =        14 
1.959e+01 // azi =       0 ele =        15 
1.748e+01 // azi =       0 ele =        16 
1.606e+01 // azi =       0 ele =        17 
1.500e+01 // azi =       0 ele =        18 
1.379e+01 // azi =       0 ele =        19 
1.300e+01 // azi =       0 ele =        20 
1.231e+01 // azi =       0 ele =        21 
1.135e+01 // azi =       0 ele =        22 
1.075e+01 // azi =       0 ele =        23 
1.016e+01 // azi =       0 ele =        24 
9.561e+00 // azi =       0 ele =        25 
9.960e+00 // azi =       0 ele =        26 
1.007e+01 // azi =       0 ele =        27 
1.002e+01 // azi =       0 ele =        28 
8.351e+00 // azi =       0 ele =        29 
8.133e+00 // azi =       0 ele =        30 
7.914e+00 // azi =       0 ele =        31 
7.682e+00 // azi =       0 ele =        32 
7.420e+00 // azi =       0 ele =        33 
7.106e+00 // azi =       0 ele =        34 
6.536e+00 // azi =       0 ele =        35 
6.157e+00 // azi =       0 ele =        36 
6.490e+00 // azi =       0 ele =        37 
6.675e+00 // azi =       0 ele =        38 
6.777e+00 // azi =       0 ele =        39 
8.989e+00 // azi =       0 ele =        40 
9.355e+00 // azi =       0 ele =        41 
9.639e+00 // azi =       0 ele =        42 
9.840e+00 // azi =       0 ele =        43 
9.946e+00 // azi =       0 ele =        44 
9.933e+00 // azi =       0 ele =        45 
9.764e+00 // azi =       0 ele =        46 
9.378e+00 // azi =       0 ele =        47 
8.679e+00 // azi =       0 ele =        48 
8.073e+00 // azi =       0 ele =        49 
5.600e+00 // azi =       0 ele =        50 
8.132e+00 // azi =       0 ele =        51 
9.812e+00 // azi =       0 ele =        52 
1.107e+01 // azi =       0 ele =        53 
1.184e+01 // azi =       0 ele =        54 
1.121e+01 // azi =       0 ele =        55 
1.143e+01 // azi =       0 ele =        56 
1.152e+01 // azi =       0 ele =        57 
1.151e+01 // azi =       0 ele =        58 
1.143e+01 // azi =       0 ele =        59 
1.129e+01 // azi =       0 ele =        60 
8.762e+00 // azi =       0 ele =        61 
8.832e+00 // azi =       0 ele =        62 
8.868e+00 // azi =       0 ele =        63 
8.859e+00 // azi =       0 ele =        64 
1.123e+01 // azi =       0 ele =        65 
1.055e+01 // azi =       0 ele =        66 
9.475e+00 // azi =       0 ele =        67 
7.466e+00 // azi =       0 ele =        68 
9.538e+00 // azi =       0 ele =        69 
1.070e+01 // azi =       0 ele =        70 
1.146e+01 // azi =       0 ele =        71 
1.201e+01 // azi =       0 ele =        72 
1.245e+01 // azi =       0 ele =        73 
1.280e+01 // azi =       0 ele =        74 
1.309e+01 // azi =       0 ele =        75 
1.334e+01 // azi =       0 ele =        76 
4.609e+01 // azi =       0 ele =        77 
5.108e+01 // azi =       0 ele =        78 
5.656e+01 // azi =       0 ele =        79 
6.261e+01 // azi =       0 ele =        80 
6.932e+01 // azi =       0 ele =        81 
7.678e+01 // azi =       0 ele =        82 
8.511e+01 // azi =       0 ele =        83 
9.447e+01 // azi =       0 ele =        84 
1.051e+02 // azi =       0 ele =        85 
1.171e+02 // azi =       0 ele =        86 
1.309e+02 // azi =       0 ele =        87 
1.470e+02 // azi =       0 ele =        88 
1.658e+02 // azi =       0 ele =        89 
1.881e+02 // azi =       0 ele =        90 
1.181e+01 // azi =       1 ele =         0 
1.182e+01 // azi =       1 ele =         1 
1.181e+01 // azi =       1 ele =         2 
1.179e+01 // azi =       1 ele =         3 
1.173e+01 // azi =       1 ele =         4 
1.171e+01 // azi =       1 ele =         5 
1.188e+01 // azi =       1 ele =         6 
1.219e+01 // azi =       1 ele =         7 
1.256e+01 // azi =       1 ele =         8 
1.299e+01 // azi =       1 ele =         9 
1.350e+01 // azi =       1 ele =        10 
1.413e+01 // azi =       1 ele =        11 
1.503e+01 // azi =       1 ele =        12 
1.587e+01 // azi =       1 ele =        13 
1.687e+01 // azi =       1 ele =        14 
1.752e+01 // azi =       1 ele =        15 
1.684e+01 // azi =       1 ele =        16 
1.577e+01 // azi =       1 ele =        17 
1.483e+01 // azi =       1 ele =        18 
1.364e+01 // azi =       1 ele =        19 
1.290e+01 // azi =       1 ele =        20 
1.225e+01 // azi =       1 ele =        21 
1.165e+01 // azi =       1 ele =        22 
1.079e+01 // azi =       1 ele =        23 
1.030e+01 // azi =       1 ele =        24 
1.001e+01 // azi =       1 ele =        25 
1.005e+01 // azi =       1 ele =        26 
1.009e+01 // azi =       1 ele =        27 
8.560e+00 // azi =       1 ele =        28 
8.344e+00 // azi =       1 ele =        29 
8.136e+00 // azi =       1 ele =        30 
7.927e+00 // azi =       1 ele =        31 
7.705e+00 // azi =       1 ele =        32 
7.457e+00 // azi =       1 ele =        33 
7.168e+00 // azi =       1 ele =        34 
6.838e+00 // azi =       1 ele =        35 
6.463e+00 // azi =       1 ele =        36 
6.571e+00 // azi =       1 ele =        37 
6.713e+00 // azi =       1 ele =        38 
8.628e+00 // azi =       1 ele =        39 
9.081e+00 // azi =       1 ele =        40 
9.453e+00 // azi =       1 ele =        41 
9.750e+00 // azi =       1 ele =        42 
9.971e+00 // azi =       1 ele =        43 
1.010e+01 // azi =       1 ele =        44 
1.012e+01 // azi =       1 ele =        45 
9.976e+00 // azi =       1 ele =        46 
9.621e+00 // azi =       1 ele =        47 
8.967e+00 // azi =       1 ele =        48 
8.601e+00 // azi =       1 ele =        49 
7.454e+00 // azi =       1 ele =        50 
8.660e+00 // azi =       1 ele =        51 
1.027e+01 // azi =       1 ele =        52 
1.136e+01 // azi =       1 ele =        53 
1.209e+01 // azi =       1 ele =        54 
1.140e+01 // azi =       1 ele =        55 
1.159e+01 // azi =       1 ele =        56 
1.165e+01 // azi =       1 ele =        57 
1.162e+01 // azi =       1 ele =        58 
1.152e+01 // azi =       1 ele =        59 
1.136e+01 // azi =       1 ele =        60 
8.795e+00 // azi =       1 ele =        61 
8.870e+00 // azi =       1 ele =        62 
8.911e+00 // azi =       1 ele =        63 
1.176e+01 // azi =       1 ele =        64 
1.130e+01 // azi =       1 ele =        65 
1.064e+01 // azi =       1 ele =        66 
9.633e+00 // azi =       1 ele =        67 
8.435e+00 // azi =       1 ele =        68 
9.690e+00 // azi =       1 ele =        69 
1.079e+01 // azi =       1 ele =        70 
1.152e+01 // azi =       1 ele =        71 
1.206e+01 // azi =       1 ele =        72 
1.249e+01 // azi =       1 ele =        73 
1.284e+01 // azi =       1 ele =        74 
1.313e+01 // azi =       1 ele =        75 
1.338e+01 // azi =       1 ele =        76 
4.587e+01 // azi =       1 ele =        77 
5.088e+01 // azi =       1 ele =        78 
5.638e+01 // azi =       1 ele =        79 
6.246e+01 // azi =       1 ele =        80 
6.919e+01 // azi =       1 ele =        81 
7.666e+01 // azi =       1 ele =        82 
8.502e+01 // azi =       1 ele =        83 
9.440e+01 // azi =       1 ele =        84 
1.050e+02 // azi =       1 ele =        85 
1.171e+02 // azi =       1 ele =        86 
1.309e+02 // azi =       1 ele =        87 
1.470e+02 // azi =       1 ele =        88 
1.658e+02 // azi =       1 ele =        89 
1.881e+02 // azi =       1 ele =        90 
1.174e+01 // azi =       2 ele =         0 
1.176e+01 // azi =       2 ele =         1 
1.177e+01 // azi =       2 ele =         2 
1.178e+01 // azi =       2 ele =         3 
1.179e+01 // azi =       2 ele =         4 
1.184e+01 // azi =       2 ele =         5 
1.197e+01 // azi =       2 ele =         6 
1.220e+01 // azi =       2 ele =         7 
1.250e+01 // azi =       2 ele =         8 
1.287e+01 // azi =       2 ele =         9 
1.332e+01 // azi =       2 ele =        10 
1.386e+01 // azi =       2 ele =        11 
1.449e+01 // azi =       2 ele =        12 
1.530e+01 // azi =       2 ele =        13 
1.587e+01 // azi =       2 ele =        14 
1.613e+01 // azi =       2 ele =        15 
1.583e+01 // azi =       2 ele =        16 
1.519e+01 // azi =       2 ele =        17 
1.412e+01 // azi =       2 ele =        18 
1.339e+01 // azi =       2 ele =        19 
1.275e+01 // azi =       2 ele =        20 
1.218e+01 // azi =       2 ele =        21 
1.167e+01 // azi =       2 ele =        22 
1.121e+01 // azi =       2 ele =        23 
1.051e+01 // azi =       2 ele =        24 
1.028e+01 // azi =       2 ele =        25 
1.019e+01 // azi =       2 ele =        26 
1.014e+01 // azi =       2 ele =        27 
8.511e+00 // azi =       2 ele =        28 
8.324e+00 // azi =       2 ele =        29 
8.137e+00 // azi =       2 ele =        30 
7.946e+00 // azi =       2 ele =        31 
7.746e+00 // azi =       2 ele =        32 
7.529e+00 // azi =       2 ele =        33 
7.295e+00 // azi =       2 ele =        34 
7.068e+00 // azi =       2 ele =        35 
6.689e+00 // azi =       2 ele =        36 
6.715e+00 // azi =       2 ele =        37 
6.791e+00 // azi =       2 ele =        38 
8.804e+00 // azi =       2 ele =        39 
9.222e+00 // azi =       2 ele =        40 
9.584e+00 // azi =       2 ele =        41 
9.890e+00 // azi =       2 ele =        42 
1.013e+01 // azi =       2 ele =        43 
1.029e+01 // azi =       2 ele =        44 
1.035e+01 // azi =       2 ele =        45 
1.026e+01 // azi =       2 ele =        46 
9.984e+00 // azi =       2 ele =        47 
9.466e+00 // azi =       2 ele =        48 
9.601e+00 // azi =       2 ele =        49 
9.033e+00 // azi =       2 ele =        50 
9.667e+00 // azi =       2 ele =        51 
1.089e+01 // azi =       2 ele =        52 
1.180e+01 // azi =       2 ele =        53 
1.243e+01 // azi =       2 ele =        54 
1.164e+01 // azi =       2 ele =        55 
1.178e+01 // azi =       2 ele =        56 
1.180e+01 // azi =       2 ele =        57 
1.174e+01 // azi =       2 ele =        58 
1.161e+01 // azi =       2 ele =        59 
1.144e+01 // azi =       2 ele =        60 
8.832e+00 // azi =       2 ele =        61 
8.911e+00 // azi =       2 ele =        62 
8.958e+00 // azi =       2 ele =        63 
1.184e+01 // azi =       2 ele =        64 
1.140e+01 // azi =       2 ele =        65 
1.079e+01 // azi =       2 ele =        66 
9.947e+00 // azi =       2 ele =        67 
9.228e+00 // azi =       2 ele =        68 
9.991e+00 // azi =       2 ele =        69 
1.092e+01 // azi =       2 ele =        70 
1.161e+01 // azi =       2 ele =        71 
1.213e+01 // azi =       2 ele =        72 
1.254e+01 // azi =       2 ele =        73 
1.288e+01 // azi =       2 ele =        74 
1.317e+01 // azi =       2 ele =        75 
1.342e+01 // azi =       2 ele =        76 
1.362e+01 // azi =       2 ele =        77 
5.069e+01 // azi =       2 ele =        78 
5.622e+01 // azi =       2 ele =        79 
6.232e+01 // azi =       2 ele =        80 
6.906e+01 // azi =       2 ele =        81 
7.656e+01 // azi =       2 ele =        82 
8.493e+01 // azi =       2 ele =        83 
9.433e+01 // azi =       2 ele =        84 
1.050e+02 // azi =       2 ele =        85 
1.170e+02 // azi =       2 ele =        86 
1.309e+02 // azi =       2 ele =        87 
1.470e+02 // azi =       2 ele =        88 
1.658e+02 // azi =       2 ele =        89 
1.881e+02 // azi =       2 ele =        90 
1.167e+01 // azi =       3 ele =         0 
1.169e+01 // azi =       3 ele =         1 
1.171e+01 // azi =       3 ele =         2 
1.174e+01 // azi =       3 ele =         3 
1.179e+01 // azi =       3 ele =         4 
1.186e+01 // azi =       3 ele =         5 
1.198e+01 // azi =       3 ele =         6 
1.216e+01 // azi =       3 ele =         7 
1.241e+01 // azi =       3 ele =         8 
1.272e+01 // azi =       3 ele =         9 
1.309e+01 // azi =       3 ele =        10 
1.352e+01 // azi =       3 ele =        11 
1.401e+01 // azi =       3 ele =        12 
1.469e+01 // azi =       3 ele =        13 
1.501e+01 // azi =       3 ele =        14 
1.513e+01 // azi =       3 ele =        15 
1.496e+01 // azi =       3 ele =        16 
1.421e+01 // azi =       3 ele =        17 
1.364e+01 // azi =       3 ele =        18 
1.308e+01 // azi =       3 ele =        19 
1.255e+01 // azi =       3 ele =        20 
1.208e+01 // azi =       3 ele =        21 
1.166e+01 // azi =       3 ele =        22 
1.130e+01 // azi =       3 ele =        23 
1.066e+01 // azi =       3 ele =        24 
1.044e+01 // azi =       3 ele =        25 
1.030e+01 // azi =       3 ele =        26 
1.018e+01 // azi =       3 ele =        27 
8.454e+00 // azi =       3 ele =        28 
8.299e+00 // azi =       3 ele =        29 
8.138e+00 // azi =       3 ele =        30 
7.971e+00 // azi =       3 ele =        31 
7.798e+00 // azi =       3 ele =        32 
7.618e+00 // azi =       3 ele =        33 
7.437e+00 // azi =       3 ele =        34 
7.280e+00 // azi =       3 ele =        35 
7.192e+00 // azi =       3 ele =        36 
6.855e+00 // azi =       3 ele =        37 
6.885e+00 // azi =       3 ele =        38 
9.022e+00 // azi =       3 ele =        39 
9.394e+00 // azi =       3 ele =        40 
9.742e+00 // azi =       3 ele =        41 
1.005e+01 // azi =       3 ele =        42 
1.032e+01 // azi =       3 ele =        43 
1.052e+01 // azi =       3 ele =        44 
1.063e+01 // azi =       3 ele =        45 
1.062e+01 // azi =       3 ele =        46 
1.045e+01 // azi =       3 ele =        47 
1.131e+01 // azi =       3 ele =        48 
1.072e+01 // azi =       3 ele =        49 
1.043e+01 // azi =       3 ele =        50 
1.080e+01 // azi =       3 ele =        51 
1.167e+01 // azi =       3 ele =        52 
1.235e+01 // azi =       3 ele =        53 
1.284e+01 // azi =       3 ele =        54 
1.314e+01 // azi =       3 ele =        55 
1.200e+01 // azi =       3 ele =        56 
1.197e+01 // azi =       3 ele =        57 
1.187e+01 // azi =       3 ele =        58 
1.172e+01 // azi =       3 ele =        59 
1.153e+01 // azi =       3 ele =        60 
8.871e+00 // azi =       3 ele =        61 
8.956e+00 // azi =       3 ele =        62 
9.011e+00 // azi =       3 ele =        63 
1.192e+01 // azi =       3 ele =        64 
1.152e+01 // azi =       3 ele =        65 
1.099e+01 // azi =       3 ele =        66 
1.033e+01 // azi =       3 ele =        67 
9.879e+00 // azi =       3 ele =        68 
1.036e+01 // azi =       3 ele =        69 
1.110e+01 // azi =       3 ele =        70 
1.171e+01 // azi =       3 ele =        71 
1.220e+01 // azi =       3 ele =        72 
1.260e+01 // azi =       3 ele =        73 
1.294e+01 // azi =       3 ele =        74 
1.322e+01 // azi =       3 ele =        75 
1.346e+01 // azi =       3 ele =        76 
1.366e+01 // azi =       3 ele =        77 
5.053e+01 // azi =       3 ele =        78 
5.607e+01 // azi =       3 ele =        79 
6.219e+01 // azi =       3 ele =        80 
6.895e+01 // azi =       3 ele =        81 
7.647e+01 // azi =       3 ele =        82 
8.486e+01 // azi =       3 ele =        83 
9.427e+01 // azi =       3 ele =        84 
1.049e+02 // azi =       3 ele =        85 
1.170e+02 // azi =       3 ele =        86 
1.309e+02 // azi =       3 ele =        87 
1.470e+02 // azi =       3 ele =        88 
1.658e+02 // azi =       3 ele =        89 
1.881e+02 // azi =       3 ele =        90 
1.157e+01 // azi =       4 ele =         0 
1.159e+01 // azi =       4 ele =         1 
1.162e+01 // azi =       4 ele =         2 
1.166e+01 // azi =       4 ele =         3 
1.171e+01 // azi =       4 ele =         4 
1.179e+01 // azi =       4 ele =         5 
1.190e+01 // azi =       4 ele =         6 
1.206e+01 // azi =       4 ele =         7 
1.226e+01 // azi =       4 ele =         8 
1.251e+01 // azi =       4 ele =         9 
1.281e+01 // azi =       4 ele =        10 
1.314e+01 // azi =       4 ele =        11 
1.350e+01 // azi =       4 ele =        12 
1.386e+01 // azi =       4 ele =        13 
1.430e+01 // azi =       4 ele =        14 
1.436e+01 // azi =       4 ele =        15 
1.425e+01 // azi =       4 ele =        16 
1.356e+01 // azi =       4 ele =        17 
1.316e+01 // azi =       4 ele =        18 
1.274e+01 // azi =       4 ele =        19 
1.233e+01 // azi =       4 ele =        20 
1.195e+01 // azi =       4 ele =        21 
1.162e+01 // azi =       4 ele =        22 
1.133e+01 // azi =       4 ele =        23 
1.111e+01 // azi =       4 ele =        24 
1.051e+01 // azi =       4 ele =        25 
1.035e+01 // azi =       4 ele =        26 
8.517e+00 // azi =       4 ele =        27 
8.404e+00 // azi =       4 ele =        28 
8.277e+00 // azi =       4 ele =        29 
8.141e+00 // azi =       4 ele =        30 
7.999e+00 // azi =       4 ele =        31 
7.854e+00 // azi =       4 ele =        32 
7.708e+00 // azi =       4 ele =        33 
7.569e+00 // azi =       4 ele =        34 
7.455e+00 // azi =       4 ele =        35 
7.387e+00 // azi =       4 ele =        36 
6.979e+00 // azi =       4 ele =        37 
6.979e+00 // azi =       4 ele =        38 
9.248e+00 // azi =       4 ele =        39 
9.582e+00 // azi =       4 ele =        40 
9.916e+00 // azi =       4 ele =        41 
1.024e+01 // azi =       4 ele =        42 
1.053e+01 // azi =       4 ele =        43 
1.077e+01 // azi =       4 ele =        44 
1.095e+01 // azi =       4 ele =        45 
1.103e+01 // azi =       4 ele =        46 
1.099e+01 // azi =       4 ele =        47 
1.216e+01 // azi =       4 ele =        48 
1.183e+01 // azi =       4 ele =        49 
1.169e+01 // azi =       4 ele =        50 
1.193e+01 // azi =       4 ele =        51 
1.254e+01 // azi =       4 ele =        52 
1.298e+01 // azi =       4 ele =        53 
1.331e+01 // azi =       4 ele =        54 
1.350e+01 // azi =       4 ele =        55 
1.224e+01 // azi =       4 ele =        56 
1.216e+01 // azi =       4 ele =        57 
1.202e+01 // azi =       4 ele =        58 
1.183e+01 // azi =       4 ele =        59 
1.161e+01 // azi =       4 ele =        60 
8.914e+00 // azi =       4 ele =        61 
9.003e+00 // azi =       4 ele =        62 
9.067e+00 // azi =       4 ele =        63 
1.203e+01 // azi =       4 ele =        64 
1.165e+01 // azi =       4 ele =        65 
1.120e+01 // azi =       4 ele =        66 
1.070e+01 // azi =       4 ele =        67 
1.042e+01 // azi =       4 ele =        68 
1.072e+01 // azi =       4 ele =        69 
1.129e+01 // azi =       4 ele =        70 
1.183e+01 // azi =       4 ele =        71 
1.228e+01 // azi =       4 ele =        72 
1.267e+01 // azi =       4 ele =        73 
1.299e+01 // azi =       4 ele =        74 
1.327e+01 // azi =       4 ele =        75 
1.350e+01 // azi =       4 ele =        76 
1.369e+01 // azi =       4 ele =        77 
5.038e+01 // azi =       4 ele =        78 
5.594e+01 // azi =       4 ele =        79 
6.207e+01 // azi =       4 ele =        80 
6.885e+01 // azi =       4 ele =        81 
7.638e+01 // azi =       4 ele =        82 
8.479e+01 // azi =       4 ele =        83 
9.422e+01 // azi =       4 ele =        84 
1.049e+02 // azi =       4 ele =        85 
1.170e+02 // azi =       4 ele =        86 
1.309e+02 // azi =       4 ele =        87 
1.469e+02 // azi =       4 ele =        88 
1.658e+02 // azi =       4 ele =        89 
1.881e+02 // azi =       4 ele =        90 
1.146e+01 // azi =       5 ele =         0 
1.147e+01 // azi =       5 ele =         1 
1.149e+01 // azi =       5 ele =         2 
1.152e+01 // azi =       5 ele =         3 
1.158e+01 // azi =       5 ele =         4 
1.165e+01 // azi =       5 ele =         5 
1.175e+01 // azi =       5 ele =         6 
1.189e+01 // azi =       5 ele =         7 
1.206e+01 // azi =       5 ele =         8 
1.226e+01 // azi =       5 ele =         9 
1.250e+01 // azi =       5 ele =        10 
1.275e+01 // azi =       5 ele =        11 
1.302e+01 // azi =       5 ele =        12 
1.327e+01 // azi =       5 ele =        13 
1.347e+01 // azi =       5 ele =        14 
1.373e+01 // azi =       5 ele =        15 
1.322e+01 // azi =       5 ele =        16 
1.299e+01 // azi =       5 ele =        17 
1.270e+01 // azi =       5 ele =        18 
1.239e+01 // azi =       5 ele =        19 
1.208e+01 // azi =       5 ele =        20 
1.179e+01 // azi =       5 ele =        21 
1.152e+01 // azi =       5 ele =        22 
1.129e+01 // azi =       5 ele =        23 
1.111e+01 // azi =       5 ele =        24 
1.053e+01 // azi =       5 ele =        25 
1.036e+01 // azi =       5 ele =        26 
8.458e+00 // azi =       5 ele =        27 
8.367e+00 // azi =       5 ele =        28 
8.261e+00 // azi =       5 ele =        29 
8.147e+00 // azi =       5 ele =        30 
8.028e+00 // azi =       5 ele =        31 
7.907e+00 // azi =       5 ele =        32 
7.790e+00 // azi =       5 ele =        33 
7.682e+00 // azi =       5 ele =        34 
7.595e+00 // azi =       5 ele =        35 
7.539e+00 // azi =       5 ele =        36 
7.088e+00 // azi =       5 ele =        37 
9.190e+00 // azi =       5 ele =        38 
9.459e+00 // azi =       5 ele =        39 
9.768e+00 // azi =       5 ele =        40 
1.010e+01 // azi =       5 ele =        41 
1.043e+01 // azi =       5 ele =        42 
1.075e+01 // azi =       5 ele =        43 
1.105e+01 // azi =       5 ele =        44 
1.130e+01 // azi =       5 ele =        45 
1.149e+01 // azi =       5 ele =        46 
1.159e+01 // azi =       5 ele =        47 
1.304e+01 // azi =       5 ele =        48 
1.291e+01 // azi =       5 ele =        49 
1.288e+01 // azi =       5 ele =        50 
1.303e+01 // azi =       5 ele =        51 
1.344e+01 // azi =       5 ele =        52 
1.367e+01 // azi =       5 ele =        53 
1.382e+01 // azi =       5 ele =        54 
1.389e+01 // azi =       5 ele =        55 
1.250e+01 // azi =       5 ele =        56 
1.235e+01 // azi =       5 ele =        57 
1.216e+01 // azi =       5 ele =        58 
1.194e+01 // azi =       5 ele =        59 
1.171e+01 // azi =       5 ele =        60 
8.958e+00 // azi =       5 ele =        61 
9.053e+00 // azi =       5 ele =        62 
1.242e+01 // azi =       5 ele =        63 
1.213e+01 // azi =       5 ele =        64 
1.180e+01 // azi =       5 ele =        65 
1.142e+01 // azi =       5 ele =        66 
1.104e+01 // azi =       5 ele =        67 
1.086e+01 // azi =       5 ele =        68 
1.106e+01 // azi =       5 ele =        69 
1.150e+01 // azi =       5 ele =        70 
1.196e+01 // azi =       5 ele =        71 
1.238e+01 // azi =       5 ele =        72 
1.274e+01 // azi =       5 ele =        73 
1.306e+01 // azi =       5 ele =        74 
1.332e+01 // azi =       5 ele =        75 
1.355e+01 // azi =       5 ele =        76 
1.374e+01 // azi =       5 ele =        77 
5.024e+01 // azi =       5 ele =        78 
5.582e+01 // azi =       5 ele =        79 
6.197e+01 // azi =       5 ele =        80 
6.876e+01 // azi =       5 ele =        81 
7.631e+01 // azi =       5 ele =        82 
8.473e+01 // azi =       5 ele =        83 
9.417e+01 // azi =       5 ele =        84 
1.048e+02 // azi =       5 ele =        85 
1.170e+02 // azi =       5 ele =        86 
1.308e+02 // azi =       5 ele =        87 
1.469e+02 // azi =       5 ele =        88 
1.658e+02 // azi =       5 ele =        89 
1.881e+02 // azi =       5 ele =        90 
1.133e+01 // azi =       6 ele =         0 
1.132e+01 // azi =       6 ele =         1 
1.133e+01 // azi =       6 ele =         2 
1.135e+01 // azi =       6 ele =         3 
1.139e+01 // azi =       6 ele =         4 
1.145e+01 // azi =       6 ele =         5 
1.155e+01 // azi =       6 ele =         6 
1.167e+01 // azi =       6 ele =         7 
1.181e+01 // azi =       6 ele =         8 
1.199e+01 // azi =       6 ele =         9 
1.217e+01 // azi =       6 ele =        10 
1.237e+01 // azi =       6 ele =        11 
1.256e+01 // azi =       6 ele =        12 
1.273e+01 // azi =       6 ele =        13 
1.287e+01 // azi =       6 ele =        14 
1.318e+01 // azi =       6 ele =        15 
1.264e+01 // azi =       6 ele =        16 
1.247e+01 // azi =       6 ele =        17 
1.227e+01 // azi =       6 ele =        18 
1.205e+01 // azi =       6 ele =        19 
1.182e+01 // azi =       6 ele =        20 
1.159e+01 // azi =       6 ele =        21 
1.138e+01 // azi =       6 ele =        22 
1.119e+01 // azi =       6 ele =        23 
1.104e+01 // azi =       6 ele =        24 
1.093e+01 // azi =       6 ele =        25 
8.480e+00 // azi =       6 ele =        26 
8.420e+00 // azi =       6 ele =        27 
8.344e+00 // azi =       6 ele =        28 
8.255e+00 // azi =       6 ele =        29 
8.158e+00 // azi =       6 ele =        30 
8.057e+00 // azi =       6 ele =        31 
7.956e+00 // azi =       6 ele =        32 
7.860e+00 // azi =       6 ele =        33 
7.775e+00 // azi =       6 ele =        34 
7.707e+00 // azi =       6 ele =        35 
7.660e+00 // azi =       6 ele =        36 
7.635e+00 // azi =       6 ele =        37 
9.389e+00 // azi =       6 ele =        38 
9.640e+00 // azi =       6 ele =        39 
9.939e+00 // azi =       6 ele =        40 
1.027e+01 // azi =       6 ele =        41 
1.062e+01 // azi =       6 ele =        42 
1.098e+01 // azi =       6 ele =        43 
1.134e+01 // azi =       6 ele =        44 
1.168e+01 // azi =       6 ele =        45 
1.198e+01 // azi =       6 ele =        46 
1.224e+01 // azi =       6 ele =        47 
1.394e+01 // azi =       6 ele =        48 
1.398e+01 // azi =       6 ele =        49 
1.403e+01 // azi =       6 ele =        50 
1.411e+01 // azi =       6 ele =        51 
1.435e+01 // azi =       6 ele =        52 
1.437e+01 // azi =       6 ele =        53 
1.436e+01 // azi =       6 ele =        54 
1.430e+01 // azi =       6 ele =        55 
1.419e+01 // azi =       6 ele =        56 
1.256e+01 // azi =       6 ele =        57 
1.232e+01 // azi =       6 ele =        58 
1.206e+01 // azi =       6 ele =        59 
1.180e+01 // azi =       6 ele =        60 
9.004e+00 // azi =       6 ele =        61 
9.105e+00 // azi =       6 ele =        62 
1.252e+01 // azi =       6 ele =        63 
1.225e+01 // azi =       6 ele =        64 
1.195e+01 // azi =       6 ele =        65 
1.163e+01 // azi =       6 ele =        66 
1.134e+01 // azi =       6 ele =        67 
1.121e+01 // azi =       6 ele =        68 
1.135e+01 // azi =       6 ele =        69 
1.169e+01 // azi =       6 ele =        70 
1.209e+01 // azi =       6 ele =        71 
1.247e+01 // azi =       6 ele =        72 
1.282e+01 // azi =       6 ele =        73 
1.312e+01 // azi =       6 ele =        74 
1.338e+01 // azi =       6 ele =        75 
1.360e+01 // azi =       6 ele =        76 
1.378e+01 // azi =       6 ele =        77 
5.013e+01 // azi =       6 ele =        78 
5.572e+01 // azi =       6 ele =        79 
6.188e+01 // azi =       6 ele =        80 
6.869e+01 // azi =       6 ele =        81 
7.624e+01 // azi =       6 ele =        82 
8.468e+01 // azi =       6 ele =        83 
9.413e+01 // azi =       6 ele =        84 
1.048e+02 // azi =       6 ele =        85 
1.169e+02 // azi =       6 ele =        86 
1.308e+02 // azi =       6 ele =        87 
1.469e+02 // azi =       6 ele =        88 
1.658e+02 // azi =       6 ele =        89 
1.881e+02 // azi =       6 ele =        90 
1.118e+01 // azi =       7 ele =         0 
1.115e+01 // azi =       7 ele =         1 
1.114e+01 // azi =       7 ele =         2 
1.113e+01 // azi =       7 ele =         3 
1.116e+01 // azi =       7 ele =         4 
1.121e+01 // azi =       7 ele =         5 
1.129e+01 // azi =       7 ele =         6 
1.140e+01 // azi =       7 ele =         7 
1.154e+01 // azi =       7 ele =         8 
1.169e+01 // azi =       7 ele =         9 
1.184e+01 // azi =       7 ele =        10 
1.199e+01 // azi =       7 ele =        11 
1.212e+01 // azi =       7 ele =        12 
1.224e+01 // azi =       7 ele =        13 
1.233e+01 // azi =       7 ele =        14 
1.194e+01 // azi =       7 ele =        15 
1.212e+01 // azi =       7 ele =        16 
1.201e+01 // azi =       7 ele =        17 
1.188e+01 // azi =       7 ele =        18 
1.173e+01 // azi =       7 ele =        19 
1.156e+01 // azi =       7 ele =        20 
1.138e+01 // azi =       7 ele =        21 
1.120e+01 // azi =       7 ele =        22 
1.104e+01 // azi =       7 ele =        23 
1.091e+01 // azi =       7 ele =        24 
1.081e+01 // azi =       7 ele =        25 
8.454e+00 // azi =       7 ele =        26 
8.401e+00 // azi =       7 ele =        27 
8.335e+00 // azi =       7 ele =        28 
8.257e+00 // azi =       7 ele =        29 
8.172e+00 // azi =       7 ele =        30 
8.084e+00 // azi =       7 ele =        31 
7.998e+00 // azi =       7 ele =        32 
7.919e+00 // azi =       7 ele =        33 
7.851e+00 // azi =       7 ele =        34 
7.796e+00 // azi =       7 ele =        35 
7.756e+00 // azi =       7 ele =        36 
7.730e+00 // azi =       7 ele =        37 
9.531e+00 // azi =       7 ele =        38 
9.782e+00 // azi =       7 ele =        39 