FoamFile
{
    version     2.0;
    format      ascii;
    class       dictionary;
    location    "constant";
    object      LookupTableInjection;
}
azi
List<scalar>
32760
(
0.000e+00 // azi =       0 ele =         0 
0.000e+00 // azi =       0 ele =         1 
0.000e+00 // azi =       0 ele =         2 
0.000e+00 // azi =       0 ele =         3 
0.000e+00 // azi =       0 ele =         4 
0.000e+00 // azi =       0 ele =         5 
0.000e+00 // azi =       0 ele =         6 
0.000e+00 // azi =       0 ele =         7 
0.000e+00 // azi =       0 ele =         8 
0.000e+00 // azi =       0 ele =         9 
0.000e+00 // azi =       0 ele =        10 
0.000e+00 // azi =       0 ele =        11 
0.000e+00 // azi =       0 ele =        12 
0.000e+00 // azi =       0 ele =        13 
0.000e+00 // azi =       0 ele =        14 
0.000e+00 // azi =       0 ele =        15 
0.000e+00 // azi =       0 ele =        16 
0.000e+00 // azi =       0 ele =        17 
0.000e+00 // azi =       0 ele =        18 
0.000e+00 // azi =       0 ele =        19 
0.000e+00 // azi =       0 ele =        20 
0.000e+00 // azi =       0 ele =        21 
0.000e+00 // azi =       0 ele =        22 
0.000e+00 // azi =       0 ele =        23 
0.000e+00 // azi =       0 ele =        24 
0.000e+00 // azi =       0 ele =        25 
0.000e+00 // azi =       0 ele =        26 
0.000e+00 // azi =       0 ele =        27 
0.000e+00 // azi =       0 ele =        28 
0.000e+00 // azi =       0 ele =        29 
0.000e+00 // azi =       0 ele =        30 
0.000e+00 // azi =       0 ele =        31 
0.000e+00 // azi =       0 ele =        32 
0.000e+00 // azi =       0 ele =        33 
0.000e+00 // azi =       0 ele =        34 
0.000e+00 // azi =       0 ele =        35 
0.000e+00 // azi =       0 ele =        36 
0.000e+00 // azi =       0 ele =        37 
0.000e+00 // azi =       0 ele =        38 
0.000e+00 // azi =       0 ele =        39 
0.000e+00 // azi =       0 ele =        40 
0.000e+00 // azi =       0 ele =        41 
0.000e+00 // azi =       0 ele =        42 
0.000e+00 // azi =       0 ele =        43 
0.000e+00 // azi =       0 ele =        44 
0.000e+00 // azi =       0 ele =        45 
0.000e+00 // azi =       0 ele =        46 
0.000e+00 // azi =       0 ele =        47 
0.000e+00 // azi =       0 ele =        48 
0.000e+00 // azi =       0 ele =        49 
0.000e+00 // azi =       0 ele =        50 
0.000e+00 // azi =       0 ele =        51 
0.000e+00 // azi =       0 ele =        52 
0.000e+00 // azi =       0 ele =        53 
0.000e+00 // azi =       0 ele =        54 
0.000e+00 // azi =       0 ele =        55 
0.000e+00 // azi =       0 ele =        56 
0.000e+00 // azi =       0 ele =        57 
0.000e+00 // azi =       0 ele =        58 
0.000e+00 // azi =       0 ele =        59 
0.000e+00 // azi =       0 ele =        60 
0.000e+00 // azi =       0 ele =        61 
0.000e+00 // azi =       0 ele =        62 
0.000e+00 // azi =       0 ele =        63 
0.000e+00 // azi =       0 ele =        64 
0.000e+00 // azi =       0 ele =        65 
0.000e+00 // azi =       0 ele =        66 
0.000e+00 // azi =       0 ele =        67 
0.000e+00 // azi =       0 ele =        68 
0.000e+00 // azi =       0 ele =        69 
0.000e+00 // azi =       0 ele =        70 
0.000e+00 // azi =       0 ele =        71 
0.000e+00 // azi =       0 ele =        72 
0.000e+00 // azi =       0 ele =        73 
0.000e+00 // azi =       0 ele =        74 
0.000e+00 // azi =       0 ele =        75 
0.000e+00 // azi =       0 ele =        76 
0.000e+00 // azi =       0 ele =        77 
0.000e+00 // azi =       0 ele =        78 
0.000e+00 // azi =       0 ele =        79 
0.000e+00 // azi =       0 ele =        80 
0.000e+00 // azi =       0 ele =        81 
0.000e+00 // azi =       0 ele =        82 
0.000e+00 // azi =       0 ele =        83 
0.000e+00 // azi =       0 ele =        84 
0.000e+00 // azi =       0 ele =        85 
0.000e+00 // azi =       0 ele =        86 
0.000e+00 // azi =       0 ele =        87 
0.000e+00 // azi =       0 ele =        88 
0.000e+00 // azi =       0 ele =        89 
0.000e+00 // azi =       0 ele =        90 
1.000e+00 // azi =       1 ele =         0 
1.000e+00 // azi =       1 ele =         1 
1.000e+00 // azi =       1 ele =         2 
1.000e+00 // azi =       1 ele =         3 
1.000e+00 // azi =       1 ele =         4 
1.000e+00 // azi =       1 ele =         5 
1.000e+00 // azi =       1 ele =         6 
1.000e+00 // azi =       1 ele =         7 
1.000e+00 // azi =       1 ele =         8 
1.000e+00 // azi =       1 ele =         9 
1.000e+00 // azi =       1 ele =        10 
1.000e+00 // azi =       1 ele =        11 
1.000e+00 // azi =       1 ele =        12 
1.000e+00 // azi =       1 ele =        13 
1.000e+00 // azi =       1 ele =        14 
1.000e+00 // azi =       1 ele =        15 
1.000e+00 // azi =       1 ele =        16 
1.000e+00 // azi =       1 ele =        17 
1.000e+00 // azi =       1 ele =        18 
1.000e+00 // azi =       1 ele =        19 
1.000e+00 // azi =       1 ele =        20 
1.000e+00 // azi =       1 ele =        21 
1.000e+00 // azi =       1 ele =        22 
1.000e+00 // azi =       1 ele =        23 
1.000e+00 // azi =       1 ele =        24 
1.000e+00 // azi =       1 ele =        25 
1.000e+00 // azi =       1 ele =        26 
1.000e+00 // azi =       1 ele =        27 
1.000e+00 // azi =       1 ele =        28 
1.000e+00 // azi =       1 ele =        29 
1.000e+00 // azi =       1 ele =        30 
1.000e+00 // azi =       1 ele =        31 
1.000e+00 // azi =       1 ele =        32 
1.000e+00 // azi =       1 ele =        33 
1.000e+00 // azi =       1 ele =        34 
1.000e+00 // azi =       1 ele =        35 
1.000e+00 // azi =       1 ele =        36 
1.000e+00 // azi =       1 ele =        37 
1.000e+00 // azi =       1 ele =        38 
1.000e+00 // azi =       1 ele =        39 
1.000e+00 // azi =       1 ele =        40 
1.000e+00 // azi =       1 ele =        41 
1.000e+00 // azi =       1 ele =        42 
1.000e+00 // azi =       1 ele =        43 
1.000e+00 // azi =       1 ele =        44 
1.000e+00 // azi =       1 ele =        45 
1.000e+00 // azi =       1 ele =        46 
1.000e+00 // azi =       1 ele =        47 
1.000e+00 // azi =       1 ele =        48 
1.000e+00 // azi =       1 ele =        49 
1.000e+00 // azi =       1 ele =        50 
1.000e+00 // azi =       1 ele =        51 
1.000e+00 // azi =       1 ele =        52 
1.000e+00 // azi =       1 ele =        53 
1.000e+00 // azi =       1 ele =        54 
1.000e+00 // azi =       1 ele =        55 
1.000e+00 // azi =       1 ele =        56 
1.000e+00 // azi =       1 ele =        57 
1.000e+00 // azi =       1 ele =        58 
1.000e+00 // azi =       1 ele =        59 
1.000e+00 // azi =       1 ele =        60 
1.000e+00 // azi =       1 ele =        61 
1.000e+00 // azi =       1 ele =        62 
1.000e+00 // azi =       1 ele =        63 
1.000e+00 // azi =       1 ele =        64 
1.000e+00 // azi =       1 ele =        65 
1.000e+00 // azi =       1 ele =        66 
1.000e+00 // azi =       1 ele =        67 
1.000e+00 // azi =       1 ele =        68 
1.000e+00 // azi =       1 ele =        69 
1.000e+00 // azi =       1 ele =        70 
1.000e+00 // azi =       1 ele =        71 
1.000e+00 // azi =       1 ele =        72 
1.000e+00 // azi =       1 ele =        73 
1.000e+00 // azi =       1 ele =        74 
1.000e+00 // azi =       1 ele =        75 
1.000e+00 // azi =       1 ele =        76 
1.000e+00 // azi =       1 ele =        77 
1.000e+00 // azi =       1 ele =        78 
1.000e+00 // azi =       1 ele =        79 
1.000e+00 // azi =       1 ele =        80 
1.000e+00 // azi =       1 ele =        81 
1.000e+00 // azi =       1 ele =        82 
1.000e+00 // azi =       1 ele =        83 
1.000e+00 // azi =       1 ele =        84 
1.000e+00 // azi =       1 ele =        85 
1.000e+00 // azi =       1 ele =        86 
1.000e+00 // azi =       1 ele =        87 
1.000e+00 // azi =       1 ele =        88 
1.000e+00 // azi =       1 ele =        89 
1.000e+00 // azi =       1 ele =        90 
2.000e+00 // azi =       2 ele =         0 
2.000e+00 // azi =       2 ele =         1 
2.000e+00 // azi =       2 ele =         2 
2.000e+00 // azi =       2 ele =         3 
2.000e+00 // azi =       2 ele =         4 
2.000e+00 // azi =       2 ele =         5 
2.000e+00 // azi =       2 ele =         6 
2.000e+00 // azi =       2 ele =         7 
2.000e+00 // azi =       2 ele =         8 
2.000e+00 // azi =       2 ele =         9 
2.000e+00 // azi =       2 ele =        10 
2.000e+00 // azi =       2 ele =        11 
2.000e+00 // azi =       2 ele =        12 
2.000e+00 // azi =       2 ele =        13 
2.000e+00 // azi =       2 ele =        14 
2.000e+00 // azi =       2 ele =        15 
2.000e+00 // azi =       2 ele =        16 
2.000e+00 // azi =       2 ele =        17 
2.000e+00 // azi =       2 ele =        18 
2.000e+00 // azi =       2 ele =        19 
2.000e+00 // azi =       2 ele =        20 
2.000e+00 // azi =       2 ele =        21 
2.000e+00 // azi =       2 ele =        22 
2.000e+00 // azi =       2 ele =        23 
2.000e+00 // azi =       2 ele =        24 
2.000e+00 // azi =       2 ele =        25 
2.000e+00 // azi =       2 ele =        26 
2.000e+00 // azi =       2 ele =        27 
2.000e+00 // azi =       2 ele =        28 
2.000e+00 // azi =       2 ele =        29 
2.000e+00 // azi =       2 ele =        30 
2.000e+00 // azi =       2 ele =        31 
2.000e+00 // azi =       2 ele =        32 
2.000e+00 // azi =       2 ele =        33 
2.000e+00 // azi =       2 ele =        34 
2.000e+00 // azi =       2 ele =        35 
2.000e+00 // azi =       2 ele =        36 
2.000e+00 // azi =       2 ele =        37 
2.000e+00 // azi =       2 ele =        38 
2.000e+00 // azi =       2 ele =        39 
2.000e+00 // azi =       2 ele =        40 
2.000e+00 // azi =       2 ele =        41 
2.000e+00 // azi =       2 ele =        42 
2.000e+00 // azi =       2 ele =        43 
2.000e+00 // azi =       2 ele =        44 
2.000e+00 // azi =       2 ele =        45 
2.000e+00 // azi =       2 ele =        46 
2.000e+00 // azi =       2 ele =        47 
2.000e+00 // azi =       2 ele =        48 
2.000e+00 // azi =       2 ele =        49 
2.000e+00 // azi =       2 ele =        50 
2.000e+00 // azi =       2 ele =        51 
2.000e+00 // azi =       2 ele =        52 
2.000e+00 // azi =       2 ele =        53 
2.000e+00 // azi =       2 ele =        54 
2.000e+00 // azi =       2 ele =        55 
2.000e+00 // azi =       2 ele =        56 
2.000e+00 // azi =       2 ele =        57 
2.000e+00 // azi =       2 ele =        58 
2.000e+00 // azi =       2 ele =        59 
2.000e+00 // azi =       2 ele =        60 
2.000e+00 // azi =       2 ele =        61 
2.000e+00 // azi =       2 ele =        62 
2.000e+00 // azi =       2 ele =        63 
2.000e+00 // azi =       2 ele =        64 
2.000e+00 // azi =       2 ele =        65 
2.000e+00 // azi =       2 ele =        66 
2.000e+00 // azi =       2 ele =        67 
2.000e+00 // azi =       2 ele =        68 
2.000e+00 // azi =       2 ele =        69 
2.000e+00 // azi =       2 ele =        70 
2.000e+00 // azi =       2 ele =        71 
2.000e+00 // azi =       2 ele =        72 
2.000e+00 // azi =       2 ele =        73 
2.000e+00 // azi =       2 ele =        74 
2.000e+00 // azi =       2 ele =        75 
2.000e+00 // azi =       2 ele =        76 
2.000e+00 // azi =       2 ele =        77 
2.000e+00 // azi =       2 ele =        78 
2.000e+00 // azi =       2 ele =        79 
2.000e+00 // azi =       2 ele =        80 
2.000e+00 // azi =       2 ele =        81 
2.000e+00 // azi =       2 ele =        82 
2.000e+00 // azi =       2 ele =        83 
2.000e+00 // azi =       2 ele =        84 
2.000e+00 // azi =       2 ele =        85 
2.000e+00 // azi =       2 ele =        86 
2.000e+00 // azi =       2 ele =        87 
2.000e+00 // azi =       2 ele =        88 
2.000e+00 // azi =       2 ele =        89 
2.000e+00 // azi =       2 ele =        90 
3.000e+00 // azi =       3 ele =         0 
3.000e+00 // azi =       3 ele =         1 
3.000e+00 // azi =       3 ele =         2 
3.000e+00 // azi =       3 ele =         3 
3.000e+00 // azi =       3 ele =         4 
3.000e+00 // azi =       3 ele =         5 
3.000e+00 // azi =       3 ele =         6 
3.000e+00 // azi =       3 ele =         7 
3.000e+00 // azi =       3 ele =         8 
3.000e+00 // azi =       3 ele =         9 
3.000e+00 // azi =       3 ele =        10 
3.000e+00 // azi =       3 ele =        11 
3.000e+00 // azi =       3 ele =        12 
3.000e+00 // azi =       3 ele =        13 
3.000e+00 // azi =       3 ele =        14 
3.000e+00 // azi =       3 ele =        15 
3.000e+00 // azi =       3 ele =        16 
3.000e+00 // azi =       3 ele =        17 
3.000e+00 // azi =       3 ele =        18 
3.000e+00 // azi =       3 ele =        19 
3.000e+00 // azi =       3 ele =        20 
3.000e+00 // azi =       3 ele =        21 
3.000e+00 // azi =       3 ele =        22 
3.000e+00 // azi =       3 ele =        23 
3.000e+00 // azi =       3 ele =        24 
3.000e+00 // azi =       3 ele =        25 
3.000e+00 // azi =       3 ele =        26 
3.000e+00 // azi =       3 ele =        27 
3.000e+00 // azi =       3 ele =        28 
3.000e+00 // azi =       3 ele =        29 
3.000e+00 // azi =       3 ele =        30 
3.000e+00 // azi =       3 ele =        31 
3.000e+00 // azi =       3 ele =        32 
3.000e+00 // azi =       3 ele =        33 
3.000e+00 // azi =       3 ele =        34 
3.000e+00 // azi =       3 ele =        35 
3.000e+00 // azi =       3 ele =        36 
3.000e+00 // azi =       3 ele =        37 
3.000e+00 // azi =       3 ele =        38 
3.000e+00 // azi =       3 ele =        39 
3.000e+00 // azi =       3 ele =        40 
3.000e+00 // azi =       3 ele =        41 
3.000e+00 // azi =       3 ele =        42 
3.000e+00 // azi =       3 ele =        43 
3.000e+00 // azi =       3 ele =        44 
3.000e+00 // azi =       3 ele =        45 
3.000e+00 // azi =       3 ele =        46 
3.000e+00 // azi =       3 ele =        47 
3.000e+00 // azi =       3 ele =        48 
3.000e+00 // azi =       3 ele =        49 
3.000e+00 // azi =       3 ele =        50 
3.000e+00 // azi =       3 ele =        51 
3.000e+00 // azi =       3 ele =        52 
3.000e+00 // azi =       3 ele =        53 
3.000e+00 // azi =       3 ele =        54 
3.000e+00 // azi =       3 ele =        55 
3.000e+00 // azi =       3 ele =        56 
3.000e+00 // azi =       3 ele =        57 
3.000e+00 // azi =       3 ele =        58 
3.000e+00 // azi =       3 ele =        59 
3.000e+00 // azi =       3 ele =        60 
3.000e+00 // azi =       3 ele =        61 
3.000e+00 // azi =       3 ele =        62 
3.000e+00 // azi =       3 ele =        63 
3.000e+00 // azi =       3 ele =        64 
3.000e+00 // azi =       3 ele =        65 
3.000e+00 // azi =       3 ele =        66 
3.000e+00 // azi =       3 ele =        67 
3.000e+00 // azi =       3 ele =        68 
3.000e+00 // azi =       3 ele =        69 
3.000e+00 // azi =       3 ele =        70 
3.000e+00 // azi =       3 ele =        71 
3.000e+00 // azi =       3 ele =        72 
3.000e+00 // azi =       3 ele =        73 
3.000e+00 // azi =       3 ele =        74 
3.000e+00 // azi =       3 ele =        75 
3.000e+00 // azi =       3 ele =        76 
3.000e+00 // azi =       3 ele =        77 
3.000e+00 // azi =       3 ele =        78 
3.000e+00 // azi =       3 ele =        79 
3.000e+00 // azi =       3 ele =        80 
3.000e+00 // azi =       3 ele =        81 
3.000e+00 // azi =       3 ele =        82 
3.000e+00 // azi =       3 ele =        83 
3.000e+00 // azi =       3 ele =        84 
3.000e+00 // azi =       3 ele =        85 
3.000e+00 // azi =       3 ele =        86 
3.000e+00 // azi =       3 ele =        87 
3.000e+00 // azi =       3 ele =        88 
3.000e+00 // azi =       3 ele =        89 
3.000e+00 // azi =       3 ele =        90 
4.000e+00 // azi =       4 ele =         0 
4.000e+00 // azi =       4 ele =         1 
4.000e+00 // azi =       4 ele =         2 
4.000e+00 // azi =       4 ele =         3 
4.000e+00 // azi =       4 ele =         4 
4.000e+00 // azi =       4 ele =         5 
4.000e+00 // azi =       4 ele =         6 
4.000e+00 // azi =       4 ele =         7 
4.000e+00 // azi =       4 ele =         8 
4.000e+00 // azi =       4 ele =         9 
4.000e+00 // azi =       4 ele =        10 
4.000e+00 // azi =       4 ele =        11 
4.000e+00 // azi =       4 ele =        12 
4.000e+00 // azi =       4 ele =        13 
4.000e+00 // azi =       4 ele =        14 
4.000e+00 // azi =       4 ele =        15 
4.000e+00 // azi =       4 ele =        16 
4.000e+00 // azi =       4 ele =        17 
4.000e+00 // azi =       4 ele =        18 
4.000e+00 // azi =       4 ele =        19 
4.000e+00 // azi =       4 ele =        20 
4.000e+00 // azi =       4 ele =        21 
4.000e+00 // azi =       4 ele =        22 
4.000e+00 // azi =       4 ele =        23 
4.000e+00 // azi =       4 ele =        24 
4.000e+00 // azi =       4 ele =        25 
4.000e+00 // azi =       4 ele =        26 
4.000e+00 // azi =       4 ele =        27 
4.000e+00 // azi =       4 ele =        28 
4.000e+00 // azi =       4 ele =        29 
4.000e+00 // azi =       4 ele =        30 
4.000e+00 // azi =       4 ele =        31 
4.000e+00 // azi =       4 ele =        32 
4.000e+00 // azi =       4 ele =        33 
4.000e+00 // azi =       4 ele =        34 
4.000e+00 // azi =       4 ele =        35 
4.000e+00 // azi =       4 ele =        36 
4.000e+00 // azi =       4 ele =        37 
4.000e+00 // azi =       4 ele =        38 
4.000e+00 // azi =       4 ele =        39 
4.000e+00 // azi =       4 ele =        40 
4.000e+00 // azi =       4 ele =        41 
4.000e+00 // azi =       4 ele =        42 
4.000e+00 // azi =       4 ele =        43 
4.000e+00 // azi =       4 ele =        44 
4.000e+00 // azi =       4 ele =        45 
4.000e+00 // azi =       4 ele =        46 
4.000e+00 // azi =       4 ele =        47 
4.000e+00 // azi =       4 ele =        48 
4.000e+00 // azi =       4 ele =        49 
4.000e+00 // azi =       4 ele =        50 
4.000e+00 // azi =       4 ele =        51 
4.000e+00 // azi =       4 ele =        52 
4.000e+00 // azi =       4 ele =        53 
4.000e+00 // azi =       4 ele =        54 
4.000e+00 // azi =       4 ele =        55 
4.000e+00 // azi =       4 ele =        56 
4.000e+00 // azi =       4 ele =        57 
4.000e+00 // azi =       4 ele =        58 
4.000e+00 // azi =       4 ele =        59 
4.000e+00 // azi =       4 ele =        60 
4.000e+00 // azi =       4 ele =        61 
4.000e+00 // azi =       4 ele =        62 
4.000e+00 // azi =       4 ele =        63 
4.000e+00 // azi =       4 ele =        64 
4.000e+00 // azi =       4 ele =        65 
4.000e+00 // azi =       4 ele =        66 
4.000e+00 // azi =       4 ele =        67 
4.000e+00 // azi =       4 ele =        68 
4.000e+00 // azi =       4 ele =        69 
4.000e+00 // azi =       4 ele =        70 
4.000e+00 // azi =       4 ele =        71 
4.000e+00 // azi =       4 ele =        72 
4.000e+00 // azi =       4 ele =        73 
4.000e+00 // azi =       4 ele =        74 
4.000e+00 // azi =       4 ele =        75 
4.000e+00 // azi =       4 ele =        76 
4.000e+00 // azi =       4 ele =        77 
4.000e+00 // azi =       4 ele =        78 
4.000e+00 // azi =       4 ele =        79 
4.000e+00 // azi =       4 ele =        80 
4.000e+00 // azi =       4 ele =        81 
4.000e+00 // azi =       4 ele =        82 
4.000e+00 // azi =       4 ele =        83 
4.000e+00 // azi =       4 ele =        84 
4.000e+00 // azi =       4 ele =        85 
4.000e+00 // azi =       4 ele =        86 
4.000e+00 // azi =       4 ele =        87 
4.000e+00 // azi =       4 ele =        88 
4.000e+00 // azi =       4 ele =        89 
4.000e+00 // azi =       4 ele =        90 
5.000e+00 // azi =       5 ele =         0 
5.000e+00 // azi =       5 ele =         1 
5.000e+00 // azi =       5 ele =         2 
5.000e+00 // azi =       5 ele =         3 
5.000e+00 // azi =       5 ele =         4 
5.000e+00 // azi =       5 ele =         5 
5.000e+00 // azi =       5 ele =         6 
5.000e+00 // azi =       5 ele =         7 
5.000e+00 // azi =       5 ele =         8 
5.000e+00 // azi =       5 ele =         9 
5.000e+00 // azi =       5 ele =        10 
5.000e+00 // azi =       5 ele =        11 
5.000e+00 // azi =       5 ele =        12 
5.000e+00 // azi =       5 ele =        13 
5.000e+00 // azi =       5 ele =        14 
5.000e+00 // azi =       5 ele =        15 
5.000e+00 // azi =       5 ele =        16 
5.000e+00 // azi =       5 ele =        17 
5.000e+00 // azi =       5 ele =        18 
5.000e+00 // azi =       5 ele =        19 
5.000e+00 // azi =       5 ele =        20 
5.000e+00 // azi =       5 ele =        21 
5.000e+00 // azi =       5 ele =        22 
5.000e+00 // azi =       5 ele =        23 
5.000e+00 // azi =       5 ele =        24 
5.000e+00 // azi =       5 ele =        25 
5.000e+00 // azi =       5 ele =        26 
5.000e+00 // azi =       5 ele =        27 
5.000e+00 // azi =       5 ele =        28 
5.000e+00 // azi =       5 ele =        29 
5.000e+00 // azi =       5 ele =        30 
5.000e+00 // azi =       5 ele =        31 
5.000e+00 // azi =       5 ele =        32 
5.000e+00 // azi =       5 ele =        33 
5.000e+00 // azi =       5 ele =        34 
5.000e+00 // azi =       5 ele =        35 
5.000e+00 // azi =       5 ele =        36 
5.000e+00 // azi =       5 ele =        37 
5.000e+00 // azi =       5 ele =        38 
5.000e+00 // azi =       5 ele =        39 
5.000e+00 // azi =       5 ele =        40 
5.000e+00 // azi =       5 ele =        41 
5.000e+00 // azi =       5 ele =        42 
5.000e+00 // azi =       5 ele =        43 
5.000e+00 // azi =       5 ele =        44 
5.000e+00 // azi =       5 ele =        45 
5.000e+00 // azi =       5 ele =        46 
5.000e+00 // azi =       5 ele =        47 
5.000e+00 // azi =       5 ele =        48 
5.000e+00 // azi =       5 ele =        49 
5.000e+00 // azi =       5 ele =        50 
5.000e+00 // azi =       5 ele =        51 
5.000e+00 // azi =       5 ele =        52 
5.000e+00 // azi =       5 ele =        53 
5.000e+00 // azi =       5 ele =        54 
5.000e+00 // azi =       5 ele =        55 
5.000e+00 // azi =       5 ele =        56 
5.000e+00 // azi =       5 ele =        57 
5.000e+00 // azi =       5 ele =        58 
5.000e+00 // azi =       5 ele =        59 
5.000e+00 // azi =       5 ele =        60 
5.000e+00 // azi =       5 ele =        61 
5.000e+00 // azi =       5 ele =        62 
5.000e+00 // azi =       5 ele =        63 
5.000e+00 // azi =       5 ele =        64 
5.000e+00 // azi =       5 ele =        65 
5.000e+00 // azi =       5 ele =        66 
5.000e+00 // azi =       5 ele =        67 
5.000e+00 // azi =       5 ele =        68 
5.000e+00 // azi =       5 ele =        69 
5.000e+00 // azi =       5 ele =        70 
5.000e+00 // azi =       5 ele =        71 
5.000e+00 // azi =       5 ele =        72 
5.000e+00 // azi =       5 ele =        73 
5.000e+00 // azi =       5 ele =        74 
5.000e+00 // azi =       5 ele =        75 
5.000e+00 // azi =       5 ele =        76 
5.000e+00 // azi =       5 ele =        77 
5.000e+00 // azi =       5 ele =        78 
5.000e+00 // azi =       5 ele =        79 
5.000e+00 // azi =       5 ele =        80 
5.000e+00 // azi =       5 ele =        81 
5.000e+00 // azi =       5 ele =        82 
5.000e+00 // azi =       5 ele =        83 
5.000e+00 // azi =       5 ele =        84 
5.000e+00 // azi =       5 ele =        85 
5.000e+00 // azi =       5 ele =        86 
5.000e+00 // azi =       5 ele =        87 
5.000e+00 // azi =       5 ele =        88 
5.000e+00 // azi =       5 ele =        89 
5.000e+00 // azi =       5 ele =        90 
6.000e+00 // azi =       6 ele =         0 
6.000e+00 // azi =       6 ele =         1 
6.000e+00 // azi =       6 ele =         2 
6.000e+00 // azi =       6 ele =         3 
6.000e+00 // azi =       6 ele =         4 
6.000e+00 // azi =       6 ele =         5 
6.000e+00 // azi =       6 ele =         6 
6.000e+00 // azi =       6 ele =         7 
6.000e+00 // azi =       6 ele =         8 
6.000e+00 // azi =       6 ele =         9 
6.000e+00 // azi =       6 ele =        10 
6.000e+00 // azi =       6 ele =        11 
6.000e+00 // azi =       6 ele =        12 
6.000e+00 // azi =       6 ele =        13 
6.000e+00 // azi =       6 ele =        14 
6.000e+00 // azi =       6 ele =        15 
6.000e+00 // azi =       6 ele =        16 
6.000e+00 // azi =       6 ele =        17 
6.000e+00 // azi =       6 ele =        18 
6.000e+00 // azi =       6 ele =        19 
6.000e+00 // azi =       6 ele =        20 
6.000e+00 // azi =       6 ele =        21 
6.000e+00 // azi =       6 ele =        22 
6.000e+00 // azi =       6 ele =        23 
6.000e+00 // azi =       6 ele =        24 
6.000e+00 // azi =       6 ele =        25 
6.000e+00 // azi =       6 ele =        26 
6.000e+00 // azi =       6 ele =        27 
6.000e+00 // azi =       6 ele =        28 
6.000e+00 // azi =       6 ele =        29 
6.000e+00 // azi =       6 ele =        30 
6.000e+00 // azi =       6 ele =        31 
6.000e+00 // azi =       6 ele =        32 
6.000e+00 // azi =       6 ele =        33 
6.000e+00 // azi =       6 ele =        34 
6.000e+00 // azi =       6 ele =        35 
6.000e+00 // azi =       6 ele =        36 
6.000e+00 // azi =       6 ele =        37 
6.000e+00 // azi =       6 ele =        38 
6.000e+00 // azi =       6 ele =        39 
6.000e+00 // azi =       6 ele =        40 
6.000e+00 // azi =       6 ele =        41 
6.000e+00 // azi =       6 ele =        42 
6.000e+00 // azi =       6 ele =        43 
6.000e+00 // azi =       6 ele =        44 
6.000e+00 // azi =       6 ele =        45 
6.000e+00 // azi =       6 ele =        46 
6.000e+00 // azi =       6 ele =        47 
6.000e+00 // azi =       6 ele =        48 
6.000e+00 // azi =       6 ele =        49 
6.000e+00 // azi =       6 ele =        50 
6.000e+00 // azi =       6 ele =        51 
6.000e+00 // azi =       6 ele =        52 
6.000e+00 // azi =       6 ele =        53 
6.000e+00 // azi =       6 ele =        54 
6.000e+00 // azi =       6 ele =        55 
6.000e+00 // azi =       6 ele =        56 
6.000e+00 // azi =       6 ele =        57 
6.000e+00 // azi =       6 ele =        58 
6.000e+00 // azi =       6 ele =        59 
6.000e+00 // azi =       6 ele =        60 
6.000e+00 // azi =       6 ele =        61 
6.000e+00 // azi =       6 ele =        62 
6.000e+00 // azi =       6 ele =        63 
6.000e+00 // azi =       6 ele =        64 
6.000e+00 // azi =       6 ele =        65 
6.000e+00 // azi =       6 ele =        66 
6.000e+00 // azi =       6 ele =        67 
6.000e+00 // azi =       6 ele =        68 
6.000e+00 // azi =       6 ele =        69 
6.000e+00 // azi =       6 ele =        70 
6.000e+00 // azi =       6 ele =        71 
6.000e+00 // azi =       6 ele =        72 
6.000e+00 // azi =       6 ele =        73 
6.000e+00 // azi =       6 ele =        74 
6.000e+00 // azi =       6 ele =        75 
6.000e+00 // azi =       6 ele =        76 
6.000e+00 // azi =       6 ele =        77 
6.000e+00 // azi =       6 ele =        78 
6.000e+00 // azi =       6 ele =        79 
6.000e+00 // azi =       6 ele =        80 
6.000e+00 // azi =       6 ele =        81 
6.000e+00 // azi =       6 ele =        82 
6.000e+00 // azi =       6 ele =        83 
6.000e+00 // azi =       6 ele =        84 
6.000e+00 // azi =       6 ele =        85 
6.000e+00 // azi =       6 ele =        86 
6.000e+00 // azi =       6 ele =        87 
6.000e+00 // azi =       6 ele =        88 
6.000e+00 // azi =       6 ele =        89 
6.000e+00 // azi =       6 ele =        90 
7.000e+00 // azi =       7 ele =         0 
7.000e+00 // azi =       7 ele =         1 
7.000e+00 // azi =       7 ele =         2 
7.000e+00 // azi =       7 ele =         3 
7.000e+00 // azi =       7 ele =         4 
7.000e+00 // azi =       7 ele =         5 
7.000e+00 // azi =       7 ele =         6 
7.000e+00 // azi =       7 ele =         7 
7.000e+00 // azi =       7 ele =         8 
7.000e+00 // azi =       7 ele =         9 
7.000e+00 // azi =       7 ele =        10 
7.000e+00 // azi =       7 ele =        11 
7.000e+00 // azi =       7 ele =        12 
7.000e+00 // azi =       7 ele =        13 
7.000e+00 // azi =       7 ele =        14 
7.000e+00 // azi =       7 ele =        15 
7.000e+00 // azi =       7 ele =        16 
7.000e+00 // azi =       7 ele =        17 
7.000e+00 // azi =       7 ele =        18 
7.000e+00 // azi =       7 ele =        19 
7.000e+00 // azi =       7 ele =        20 
7.000e+00 // azi =       7 ele =        21 
7.000e+00 // azi =       7 ele =        22 
7.000e+00 // azi =       7 ele =        23 
7.000e+00 // azi =       7 ele =        24 
7.000e+00 // azi =       7 ele =        25 
7.000e+00 // azi =       7 ele =        26 
7.000e+00 // azi =       7 ele =        27 
7.000e+00 // azi =       7 ele =        28 
7.000e+00 // azi =       7 ele =        29 
7.000e+00 // azi =       7 ele =        30 
7.000e+00 // azi =       7 ele =        31 
7.000e+00 // azi =       7 ele =        32 
7.000e+00 // azi =       7 ele =        33 
7.000e+00 // azi =       7 ele =        34 
7.000e+00 // azi =       7 ele =        35 
7.000e+00 // azi =       7 ele =        36 
7.000e+00 // azi =       7 ele =        37 
7.000e+00 // azi =       7 ele =        38 
7.000e+00 // azi =       7 ele =        39 