FoamFile
{
    version     2.0;
    format      ascii;
    class       dictionary;
    location    "constant";
    object      LookupTableInjection;
}
pressure    3.44735; // pressure (bar),   50.00000 (psi)
kFactor  202.49600; // kFactor (lpm/bar^0.5),   14.00000 (gpm/psi^0.5)
radius    1.00000; // radius (m),   39.37008 (in)
nAzi    72; // azimuthal angles
nEle    19; // elevation angles
