FoamFile
{
    version     2.0;
    format      ascii;
    class       dictionary;
    location    "constant";
    object      LookupTableInjection;
}
avgVelMag
List<scalar>
 8280
(
4.028e+00 // azi =       0 ele =         0 
4.221e+00 // azi =       0 ele =         2 
4.197e+00 // azi =       0 ele =         4 
4.166e+00 // azi =       0 ele =         6 
4.122e+00 // azi =       0 ele =         8 
4.057e+00 // azi =       0 ele =        10 
3.955e+00 // azi =       0 ele =        12 
3.775e+00 // azi =       0 ele =        14 
3.786e+00 // azi =       0 ele =        16 
4.017e+00 // azi =       0 ele =        18 
4.181e+00 // azi =       0 ele =        20 
4.315e+00 // azi =       0 ele =        22 
4.437e+00 // azi =       0 ele =        24 
4.567e+00 // azi =       0 ele =        26 
4.787e+00 // azi =       0 ele =        28 
4.969e+00 // azi =       0 ele =        30 
4.826e+00 // azi =       0 ele =        32 
4.964e+00 // azi =       0 ele =        34 
4.982e+00 // azi =       0 ele =        36 
5.009e+00 // azi =       0 ele =        38 
5.046e+00 // azi =       0 ele =        40 
5.096e+00 // azi =       0 ele =        42 
5.180e+00 // azi =       0 ele =        44 
5.179e+00 // azi =       0 ele =        46 
5.157e+00 // azi =       0 ele =        48 
5.129e+00 // azi =       0 ele =        50 
5.104e+00 // azi =       0 ele =        52 
5.077e+00 // azi =       0 ele =        54 
5.042e+00 // azi =       0 ele =        56 
4.990e+00 // azi =       0 ele =        58 
4.872e+00 // azi =       0 ele =        60 
4.535e+00 // azi =       0 ele =        62 
4.288e+00 // azi =       0 ele =        64 
4.050e+00 // azi =       0 ele =        66 
3.804e+00 // azi =       0 ele =        68 
3.545e+00 // azi =       0 ele =        70 
2.834e+00 // azi =       0 ele =        72 
2.681e+00 // azi =       0 ele =        74 
2.562e+00 // azi =       0 ele =        76 
2.539e+00 // azi =       0 ele =        78 
2.479e+00 // azi =       0 ele =        80 
2.422e+00 // azi =       0 ele =        82 
2.379e+00 // azi =       0 ele =        84 
2.349e+00 // azi =       0 ele =        86 
2.330e+00 // azi =       0 ele =        88 
2.417e+00 // azi =       0 ele =        90 
4.030e+00 // azi =       2 ele =         0 
4.025e+00 // azi =       2 ele =         2 
4.207e+00 // azi =       2 ele =         4 
4.179e+00 // azi =       2 ele =         6 
4.140e+00 // azi =       2 ele =         8 
4.085e+00 // azi =       2 ele =        10 
4.007e+00 // azi =       2 ele =        12 
3.915e+00 // azi =       2 ele =        14 
3.931e+00 // azi =       2 ele =        16 
4.070e+00 // azi =       2 ele =        18 
4.206e+00 // azi =       2 ele =        20 
4.325e+00 // azi =       2 ele =        22 
4.436e+00 // azi =       2 ele =        24 
4.551e+00 // azi =       2 ele =        26 
4.747e+00 // azi =       2 ele =        28 
4.821e+00 // azi =       2 ele =        30 
4.950e+00 // azi =       2 ele =        32 
4.957e+00 // azi =       2 ele =        34 
4.976e+00 // azi =       2 ele =        36 
5.004e+00 // azi =       2 ele =        38 
5.041e+00 // azi =       2 ele =        40 
5.087e+00 // azi =       2 ele =        42 
5.155e+00 // azi =       2 ele =        44 
5.183e+00 // azi =       2 ele =        46 
5.155e+00 // azi =       2 ele =        48 
5.130e+00 // azi =       2 ele =        50 
5.107e+00 // azi =       2 ele =        52 
5.083e+00 // azi =       2 ele =        54 
5.052e+00 // azi =       2 ele =        56 
5.007e+00 // azi =       2 ele =        58 
4.811e+00 // azi =       2 ele =        60 
4.733e+00 // azi =       2 ele =        62 
4.302e+00 // azi =       2 ele =        64 
4.064e+00 // azi =       2 ele =        66 
3.812e+00 // azi =       2 ele =        68 
3.550e+00 // azi =       2 ele =        70 
2.837e+00 // azi =       2 ele =        72 
2.703e+00 // azi =       2 ele =        74 
2.575e+00 // azi =       2 ele =        76 
2.546e+00 // azi =       2 ele =        78 
2.479e+00 // azi =       2 ele =        80 
2.419e+00 // azi =       2 ele =        82 
2.376e+00 // azi =       2 ele =        84 
2.348e+00 // azi =       2 ele =        86 
2.329e+00 // azi =       2 ele =        88 
2.417e+00 // azi =       2 ele =        90 
4.033e+00 // azi =       4 ele =         0 
4.030e+00 // azi =       4 ele =         2 
4.025e+00 // azi =       4 ele =         4 
4.201e+00 // azi =       4 ele =         6 
4.173e+00 // azi =       4 ele =         8 
4.137e+00 // azi =       4 ele =        10 
4.095e+00 // azi =       4 ele =        12 
4.066e+00 // azi =       4 ele =        14 
4.085e+00 // azi =       4 ele =        16 
4.158e+00 // azi =       4 ele =        18 
4.250e+00 // azi =       4 ele =        20 
4.342e+00 // azi =       4 ele =        22 
4.431e+00 // azi =       4 ele =        24 
4.519e+00 // azi =       4 ele =        26 
4.600e+00 // azi =       4 ele =        28 
4.736e+00 // azi =       4 ele =        30 
4.936e+00 // azi =       4 ele =        32 
4.948e+00 // azi =       4 ele =        34 
4.968e+00 // azi =       4 ele =        36 
4.997e+00 // azi =       4 ele =        38 
5.032e+00 // azi =       4 ele =        40 
5.071e+00 // azi =       4 ele =        42 
5.127e+00 // azi =       4 ele =        44 
5.166e+00 // azi =       4 ele =        46 
5.150e+00 // azi =       4 ele =        48 
5.130e+00 // azi =       4 ele =        50 
5.111e+00 // azi =       4 ele =        52 
5.091e+00 // azi =       4 ele =        54 
5.066e+00 // azi =       4 ele =        56 
5.038e+00 // azi =       4 ele =        58 
4.793e+00 // azi =       4 ele =        60 
4.738e+00 // azi =       4 ele =        62 
4.311e+00 // azi =       4 ele =        64 
4.075e+00 // azi =       4 ele =        66 
3.821e+00 // azi =       4 ele =        68 
3.557e+00 // azi =       4 ele =        70 
2.844e+00 // azi =       4 ele =        72 
2.743e+00 // azi =       4 ele =        74 
2.598e+00 // azi =       4 ele =        76 
2.554e+00 // azi =       4 ele =        78 
2.479e+00 // azi =       4 ele =        80 
2.416e+00 // azi =       4 ele =        82 
2.374e+00 // azi =       4 ele =        84 
2.346e+00 // azi =       4 ele =        86 
2.329e+00 // azi =       4 ele =        88 
2.417e+00 // azi =       4 ele =        90 
4.036e+00 // azi =       6 ele =         0 
4.037e+00 // azi =       6 ele =         2 
4.037e+00 // azi =       6 ele =         4 
4.035e+00 // azi =       6 ele =         6 
4.212e+00 // azi =       6 ele =         8 
4.194e+00 // azi =       6 ele =        10 
4.178e+00 // azi =       6 ele =        12 
4.173e+00 // azi =       6 ele =        14 
4.192e+00 // azi =       6 ele =        16 
4.235e+00 // azi =       6 ele =        18 
4.294e+00 // azi =       6 ele =        20 
4.361e+00 // azi =       6 ele =        22 
4.429e+00 // azi =       6 ele =        24 
4.493e+00 // azi =       6 ele =        26 
4.548e+00 // azi =       6 ele =        28 
4.684e+00 // azi =       6 ele =        30 
4.917e+00 // azi =       6 ele =        32 
4.933e+00 // azi =       6 ele =        34 
4.958e+00 // azi =       6 ele =        36 
4.989e+00 // azi =       6 ele =        38 
5.024e+00 // azi =       6 ele =        40 
5.057e+00 // azi =       6 ele =        42 
5.084e+00 // azi =       6 ele =        44 
5.157e+00 // azi =       6 ele =        46 
5.146e+00 // azi =       6 ele =        48 
5.131e+00 // azi =       6 ele =        50 
5.115e+00 // azi =       6 ele =        52 
5.100e+00 // azi =       6 ele =        54 
5.084e+00 // azi =       6 ele =        56 
5.072e+00 // azi =       6 ele =        58 
4.808e+00 // azi =       6 ele =        60 
4.757e+00 // azi =       6 ele =        62 
4.322e+00 // azi =       6 ele =        64 
4.086e+00 // azi =       6 ele =        66 
3.829e+00 // azi =       6 ele =        68 
3.567e+00 // azi =       6 ele =        70 
2.853e+00 // azi =       6 ele =        72 
2.632e+00 // azi =       6 ele =        74 
2.631e+00 // azi =       6 ele =        76 
2.561e+00 // azi =       6 ele =        78 
2.476e+00 // azi =       6 ele =        80 
2.413e+00 // azi =       6 ele =        82 
2.370e+00 // azi =       6 ele =        84 
2.344e+00 // azi =       6 ele =        86 
2.328e+00 // azi =       6 ele =        88 
2.417e+00 // azi =       6 ele =        90 
3.981e+00 // azi =       8 ele =         0 
3.986e+00 // azi =       8 ele =         2 
3.992e+00 // azi =       8 ele =         4 
4.000e+00 // azi =       8 ele =         6 
4.009e+00 // azi =       8 ele =         8 
4.246e+00 // azi =       8 ele =        10 
4.245e+00 // azi =       8 ele =        12 
4.251e+00 // azi =       8 ele =        14 
4.267e+00 // azi =       8 ele =        16 
4.293e+00 // azi =       8 ele =        18 
4.332e+00 // azi =       8 ele =        20 
4.379e+00 // azi =       8 ele =        22 
4.430e+00 // azi =       8 ele =        24 
4.480e+00 // azi =       8 ele =        26 
4.520e+00 // azi =       8 ele =        28 
4.875e+00 // azi =       8 ele =        30 
4.889e+00 // azi =       8 ele =        32 
4.913e+00 // azi =       8 ele =        34 
4.944e+00 // azi =       8 ele =        36 
4.980e+00 // azi =       8 ele =        38 
5.017e+00 // azi =       8 ele =        40 
5.051e+00 // azi =       8 ele =        42 
5.076e+00 // azi =       8 ele =        44 
5.154e+00 // azi =       8 ele =        46 
5.145e+00 // azi =       8 ele =        48 
5.133e+00 // azi =       8 ele =        50 
5.120e+00 // azi =       8 ele =        52 
5.110e+00 // azi =       8 ele =        54 
5.103e+00 // azi =       8 ele =        56 
5.100e+00 // azi =       8 ele =        58 
4.908e+00 // azi =       8 ele =        60 
4.863e+00 // azi =       8 ele =        62 
4.771e+00 // azi =       8 ele =        64 
4.096e+00 // azi =       8 ele =        66 
3.837e+00 // azi =       8 ele =        68 
3.577e+00 // azi =       8 ele =        70 
2.909e+00 // azi =       8 ele =        72 
2.677e+00 // azi =       8 ele =        74 
2.674e+00 // azi =       8 ele =        76 
2.568e+00 // azi =       8 ele =        78 
2.473e+00 // azi =       8 ele =        80 
2.408e+00 // azi =       8 ele =        82 
2.367e+00 // azi =       8 ele =        84 
2.342e+00 // azi =       8 ele =        86 
2.327e+00 // azi =       8 ele =        88 
2.417e+00 // azi =       8 ele =        90 
3.986e+00 // azi =      10 ele =         0 
3.995e+00 // azi =      10 ele =         2 
4.006e+00 // azi =      10 ele =         4 
4.020e+00 // azi =      10 ele =         6 
4.039e+00 // azi =      10 ele =         8 
4.064e+00 // azi =      10 ele =        10 
4.091e+00 // azi =      10 ele =        12 
4.311e+00 // azi =      10 ele =        14 
4.322e+00 // azi =      10 ele =        16 
4.336e+00 // azi =      10 ele =        18 
4.360e+00 // azi =      10 ele =        20 
4.395e+00 // azi =      10 ele =        22 
4.436e+00 // azi =      10 ele =        24 
4.477e+00 // azi =      10 ele =        26 
4.512e+00 // azi =      10 ele =        28 
4.720e+00 // azi =      10 ele =        30 
4.851e+00 // azi =      10 ele =        32 
4.887e+00 // azi =      10 ele =        34 
4.929e+00 // azi =      10 ele =        36 
4.971e+00 // azi =      10 ele =        38 
5.013e+00 // azi =      10 ele =        40 
5.052e+00 // azi =      10 ele =        42 
5.037e+00 // azi =      10 ele =        44 
5.123e+00 // azi =      10 ele =        46 
5.146e+00 // azi =      10 ele =        48 
5.135e+00 // azi =      10 ele =        50 
5.125e+00 // azi =      10 ele =        52 
5.119e+00 // azi =      10 ele =        54 
5.117e+00 // azi =      10 ele =        56 
5.133e+00 // azi =      10 ele =        58 
4.970e+00 // azi =      10 ele =        60 
4.905e+00 // azi =      10 ele =        62 
4.790e+00 // azi =      10 ele =        64 
4.106e+00 // azi =      10 ele =        66 
3.845e+00 // azi =      10 ele =        68 
3.588e+00 // azi =      10 ele =        70 
2.922e+00 // azi =      10 ele =        72 
2.732e+00 // azi =      10 ele =        74 
2.727e+00 // azi =      10 ele =        76 
2.572e+00 // azi =      10 ele =        78 
2.468e+00 // azi =      10 ele =        80 
2.403e+00 // azi =      10 ele =        82 
2.363e+00 // azi =      10 ele =        84 
2.340e+00 // azi =      10 ele =        86 
2.326e+00 // azi =      10 ele =        88 
2.417e+00 // azi =      10 ele =        90 
3.989e+00 // azi =      12 ele =         0 
4.000e+00 // azi =      12 ele =         2 
4.015e+00 // azi =      12 ele =         4 
4.035e+00 // azi =      12 ele =         6 
4.063e+00 // azi =      12 ele =         8 
4.101e+00 // azi =      12 ele =        10 
4.151e+00 // azi =      12 ele =        12 
4.199e+00 // azi =      12 ele =        14 
4.204e+00 // azi =      12 ele =        16 
4.368e+00 // azi =      12 ele =        18 
4.381e+00 // azi =      12 ele =        20 
4.408e+00 // azi =      12 ele =        22 
4.443e+00 // azi =      12 ele =        24 
4.482e+00 // azi =      12 ele =        26 
4.472e+00 // azi =      12 ele =        28 
4.684e+00 // azi =      12 ele =        30 
4.581e+00 // azi =      12 ele =        32 
4.858e+00 // azi =      12 ele =        34 
4.913e+00 // azi =      12 ele =        36 
4.964e+00 // azi =      12 ele =        38 
5.012e+00 // azi =      12 ele =        40 
5.010e+00 // azi =      12 ele =        42 
5.060e+00 // azi =      12 ele =        44 
5.130e+00 // azi =      12 ele =        46 
5.113e+00 // azi =      12 ele =        48 
5.138e+00 // azi =      12 ele =        50 
5.130e+00 // azi =      12 ele =        52 
5.119e+00 // azi =      12 ele =        54 
5.133e+00 // azi =      12 ele =        56 
5.162e+00 // azi =      12 ele =        58 
5.061e+00 // azi =      12 ele =        60 
4.953e+00 // azi =      12 ele =        62 
4.808e+00 // azi =      12 ele =        64 
4.113e+00 // azi =      12 ele =        66 
3.852e+00 // azi =      12 ele =        68 
3.023e+00 // azi =      12 ele =        70 
2.931e+00 // azi =      12 ele =        72 
2.793e+00 // azi =      12 ele =        74 
2.784e+00 // azi =      12 ele =        76 
2.572e+00 // azi =      12 ele =        78 
2.461e+00 // azi =      12 ele =        80 
2.396e+00 // azi =      12 ele =        82 
2.359e+00 // azi =      12 ele =        84 
2.338e+00 // azi =      12 ele =        86 
2.325e+00 // azi =      12 ele =        88 
2.417e+00 // azi =      12 ele =        90 
3.989e+00 // azi =      14 ele =         0 
4.000e+00 // azi =      14 ele =         2 
4.017e+00 // azi =      14 ele =         4 
4.040e+00 // azi =      14 ele =         6 
4.073e+00 // azi =      14 ele =         8 
4.123e+00 // azi =      14 ele =        10 
4.197e+00 // azi =      14 ele =        12 
4.306e+00 // azi =      14 ele =        14 
4.307e+00 // azi =      14 ele =        16 
4.211e+00 // azi =      14 ele =        18 
4.166e+00 // azi =      14 ele =        20 
4.417e+00 // azi =      14 ele =        22 
4.387e+00 // azi =      14 ele =        24 
4.422e+00 // azi =      14 ele =        26 
4.479e+00 // azi =      14 ele =        28 
4.582e+00 // azi =      14 ele =        30 
4.565e+00 // azi =      14 ele =        32 
4.565e+00 // azi =      14 ele =        34 
4.901e+00 // azi =      14 ele =        36 
4.892e+00 // azi =      14 ele =        38 
4.949e+00 // azi =      14 ele =        40 
5.014e+00 // azi =      14 ele =        42 
5.103e+00 // azi =      14 ele =        44 
5.147e+00 // azi =      14 ele =        46 
5.108e+00 // azi =      14 ele =        48 
5.093e+00 // azi =      14 ele =        50 
5.133e+00 // azi =      14 ele =        52 
5.126e+00 // azi =      14 ele =        54 
5.144e+00 // azi =      14 ele =        56 
5.184e+00 // azi =      14 ele =        58 
5.198e+00 // azi =      14 ele =        60 
4.991e+00 // azi =      14 ele =        62 
4.822e+00 // azi =      14 ele =        64 
4.664e+00 // azi =      14 ele =        66 
3.857e+00 // azi =      14 ele =        68 
3.020e+00 // azi =      14 ele =        70 
2.933e+00 // azi =      14 ele =        72 
2.839e+00 // azi =      14 ele =        74 
2.826e+00 // azi =      14 ele =        76 
2.567e+00 // azi =      14 ele =        78 
2.451e+00 // azi =      14 ele =        80 
2.389e+00 // azi =      14 ele =        82 
2.355e+00 // azi =      14 ele =        84 
2.336e+00 // azi =      14 ele =        86 
2.325e+00 // azi =      14 ele =        88 
2.318e+00 // azi =      14 ele =        90 
3.984e+00 // azi =      16 ele =         0 
3.995e+00 // azi =      16 ele =         2 
4.011e+00 // azi =      16 ele =         4 
4.034e+00 // azi =      16 ele =         6 
4.067e+00 // azi =      16 ele =         8 
4.117e+00 // azi =      16 ele =        10 
4.192e+00 // azi =      16 ele =        12 
4.303e+00 // azi =      16 ele =        14 
4.304e+00 // azi =      16 ele =        16 
4.206e+00 // azi =      16 ele =        18 
4.160e+00 // azi =      16 ele =        20 
4.076e+00 // azi =      16 ele =        22 
4.356e+00 // azi =      16 ele =        24 
4.390e+00 // azi =      16 ele =        26 
4.455e+00 // azi =      16 ele =        28 
4.570e+00 // azi =      16 ele =        30 
4.540e+00 // azi =      16 ele =        32 
4.533e+00 // azi =      16 ele =        34 
4.488e+00 // azi =      16 ele =        36 
4.881e+00 // azi =      16 ele =        38 
4.936e+00 // azi =      16 ele =        40 
5.002e+00 // azi =      16 ele =        42 
5.095e+00 // azi =      16 ele =        44 
5.140e+00 // azi =      16 ele =        46 
5.096e+00 // azi =      16 ele =        48 
5.079e+00 // azi =      16 ele =        50 
5.062e+00 // azi =      16 ele =        52 
5.131e+00 // azi =      16 ele =        54 
5.150e+00 // azi =      16 ele =        56 
5.189e+00 // azi =      16 ele =        58 
5.256e+00 // azi =      16 ele =        60 
4.997e+00 // azi =      16 ele =        62 
4.828e+00 // azi =      16 ele =        64 
4.669e+00 // azi =      16 ele =        66 
3.926e+00 // azi =      16 ele =        68 
3.013e+00 // azi =      16 ele =        70 
2.928e+00 // azi =      16 ele =        72 
2.835e+00 // azi =      16 ele =        74 
2.822e+00 // azi =      16 ele =        76 
2.554e+00 // azi =      16 ele =        78 
2.440e+00 // azi =      16 ele =        80 
2.381e+00 // azi =      16 ele =        82 
2.350e+00 // azi =      16 ele =        84 
2.333e+00 // azi =      16 ele =        86 
2.324e+00 // azi =      16 ele =        88 
2.318e+00 // azi =      16 ele =        90 
3.975e+00 // azi =      18 ele =         0 
3.984e+00 // azi =      18 ele =         2 
3.997e+00 // azi =      18 ele =         4 
4.016e+00 // azi =      18 ele =         6 
4.043e+00 // azi =      18 ele =         8 
4.081e+00 // azi =      18 ele =        10 
4.133e+00 // azi =      18 ele =        12 
4.183e+00 // azi =      18 ele =        14 
4.188e+00 // azi =      18 ele =        16 
4.087e+00 // azi =      18 ele =        18 
4.044e+00 // azi =      18 ele =        20 
4.030e+00 // azi =      18 ele =        22 
4.048e+00 // azi =      18 ele =        24 
4.100e+00 // azi =      18 ele =        26 
4.375e+00 // azi =      18 ele =        28 
4.415e+00 // azi =      18 ele =        30 
4.484e+00 // azi =      18 ele =        32 
4.424e+00 // azi =      18 ele =        34 
4.455e+00 // azi =      18 ele =        36 
4.516e+00 // azi =      18 ele =        38 
4.604e+00 // azi =      18 ele =        40 
4.968e+00 // azi =      18 ele =        42 
5.023e+00 // azi =      18 ele =        44 
5.093e+00 // azi =      18 ele =        46 
5.070e+00 // azi =      18 ele =        48 
5.040e+00 // azi =      18 ele =        50 
5.052e+00 // azi =      18 ele =        52 
5.134e+00 // azi =      18 ele =        54 
5.151e+00 // azi =      18 ele =        56 
5.180e+00 // azi =      18 ele =        58 
5.203e+00 // azi =      18 ele =        60 
4.971e+00 // azi =      18 ele =        62 
4.826e+00 // azi =      18 ele =        64 
4.671e+00 // azi =      18 ele =        66 
3.951e+00 // azi =      18 ele =        68 
3.000e+00 // azi =      18 ele =        70 
2.575e+00 // azi =      18 ele =        72 
2.778e+00 // azi =      18 ele =        74 
2.768e+00 // azi =      18 ele =        76 
2.534e+00 // azi =      18 ele =        78 
2.426e+00 // azi =      18 ele =        80 
2.373e+00 // azi =      18 ele =        82 
2.346e+00 // azi =      18 ele =        84 
2.331e+00 // azi =      18 ele =        86 
2.323e+00 // azi =      18 ele =        88 
2.318e+00 // azi =      18 ele =        90 
3.694e+00 // azi =      20 ele =         0 
3.710e+00 // azi =      20 ele =         2 
3.976e+00 // azi =      20 ele =         4 
3.988e+00 // azi =      20 ele =         6 
4.004e+00 // azi =      20 ele =         8 
4.027e+00 // azi =      20 ele =        10 
4.054e+00 // azi =      20 ele =        12 
4.015e+00 // azi =      20 ele =        14 
4.014e+00 // azi =      20 ele =        16 
3.993e+00 // azi =      20 ele =        18 
3.974e+00 // azi =      20 ele =        20 
3.967e+00 // azi =      20 ele =        22 
3.979e+00 // azi =      20 ele =        24 
4.009e+00 // azi =      20 ele =        26 
4.048e+00 // azi =      20 ele =        28 
4.305e+00 // azi =      20 ele =        30 
4.345e+00 // azi =      20 ele =        32 
4.366e+00 // azi =      20 ele =        34 
4.410e+00 // azi =      20 ele =        36 
4.475e+00 // azi =      20 ele =        38 
4.556e+00 // azi =      20 ele =        40 
4.645e+00 // azi =      20 ele =        42 
4.954e+00 // azi =      20 ele =        44 
5.041e+00 // azi =      20 ele =        46 
5.015e+00 // azi =      20 ele =        48 
5.020e+00 // azi =      20 ele =        50 
5.039e+00 // azi =      20 ele =        52 
5.067e+00 // azi =      20 ele =        54 
5.149e+00 // azi =      20 ele =        56 
5.158e+00 // azi =      20 ele =        58 
5.172e+00 // azi =      20 ele =        60 
5.156e+00 // azi =      20 ele =        62 
4.820e+00 // azi =      20 ele =        64 
4.673e+00 // azi =      20 ele =        66 
3.974e+00 // azi =      20 ele =        68 
2.982e+00 // azi =      20 ele =        70 
2.542e+00 // azi =      20 ele =        72 
2.697e+00 // azi =      20 ele =        74 
2.691e+00 // azi =      20 ele =        76 
2.506e+00 // azi =      20 ele =        78 
2.410e+00 // azi =      20 ele =        80 
2.364e+00 // azi =      20 ele =        82 
2.341e+00 // azi =      20 ele =        84 
2.329e+00 // azi =      20 ele =        86 
2.322e+00 // azi =      20 ele =        88 
2.318e+00 // azi =      20 ele =        90 
3.671e+00 // azi =      22 ele =         0 
3.682e+00 // azi =      22 ele =         2 
3.694e+00 // azi =      22 ele =         4 
3.709e+00 // azi =      22 ele =         6 
3.957e+00 // azi =      22 ele =         8 
3.893e+00 // azi =      22 ele =        10 
3.898e+00 // azi =      22 ele =        12 
3.901e+00 // azi =      22 ele =        14 
3.901e+00 // azi =      22 ele =        16 
3.897e+00 // azi =      22 ele =        18 
3.895e+00 // azi =      22 ele =        20 
3.895e+00 // azi =      22 ele =        22 
3.901e+00 // azi =      22 ele =        24 
3.910e+00 // azi =      22 ele =        26 
3.921e+00 // azi =      22 ele =        28 
4.221e+00 // azi =      22 ele =        30 
4.248e+00 // azi =      22 ele =        32 
4.293e+00 // azi =      22 ele =        34 
4.355e+00 // azi =      22 ele =        36 
4.428e+00 // azi =      22 ele =        38 
4.506e+00 // azi =      22 ele =        40 
4.579e+00 // azi =      22 ele =        42 
4.634e+00 // azi =      22 ele =        44 
4.965e+00 // azi =      22 ele =        46 
4.977e+00 // azi =      22 ele =        48 
4.996e+00 // azi =      22 ele =        50 
5.023e+00 // azi =      22 ele =        52 
5.056e+00 // azi =      22 ele =        54 
5.091e+00 // azi =      22 ele =        56 
5.145e+00 // azi =      22 ele =        58 
5.152e+00 // azi =      22 ele =        60 
5.144e+00 // azi =      22 ele =        62 
4.815e+00 // azi =      22 ele =        64 
4.241e+00 // azi =      22 ele =        66 
3.995e+00 // azi =      22 ele =        68 
2.957e+00 // azi =      22 ele =        70 
2.501e+00 // azi =      22 ele =        72 
2.613e+00 // azi =      22 ele =        74 
2.609e+00 // azi =      22 ele =        76 
2.471e+00 // azi =      22 ele =        78 
2.391e+00 // azi =      22 ele =        80 
2.354e+00 // azi =      22 ele =        82 
2.336e+00 // azi =      22 ele =        84 
2.326e+00 // azi =      22 ele =        86 
2.321e+00 // azi =      22 ele =        88 
2.318e+00 // azi =      22 ele =        90 
3.645e+00 // azi =      24 ele =         0 
3.651e+00 // azi =      24 ele =         2 
3.657e+00 // azi =      24 ele =         4 
3.583e+00 // azi =      24 ele =         6 
3.588e+00 // azi =      24 ele =         8 
3.590e+00 // azi =      24 ele =        10 
3.802e+00 // azi =      24 ele =        12 
3.790e+00 // azi =      24 ele =        14 
3.791e+00 // azi =      24 ele =        16 
3.801e+00 // azi =      24 ele =        18 
3.814e+00 // azi =      24 ele =        20 
3.821e+00 // azi =      24 ele =        22 
3.821e+00 // azi =      24 ele =        24 
3.812e+00 // azi =      24 ele =        26 
3.799e+00 // azi =      24 ele =        28 
3.814e+00 // azi =      24 ele =        30 
4.129e+00 // azi =      24 ele =        32 
4.205e+00 // azi =      24 ele =        34 
4.293e+00 // azi =      24 ele =        36 
4.381e+00 // azi =      24 ele =        38 
4.461e+00 // azi =      24 ele =        40 
4.528e+00 // azi =      24 ele =        42 
4.777e+00 // azi =      24 ele =        44 
5.014e+00 // azi =      24 ele =        46 
4.933e+00 // azi =      24 ele =        48 
4.970e+00 // azi =      24 ele =        50 
5.008e+00 // azi =      24 ele =        52 
5.045e+00 // azi =      24 ele =        54 
5.061e+00 // azi =      24 ele =        56 
5.135e+00 // azi =      24 ele =        58 
5.139e+00 // azi =      24 ele =        60 
5.135e+00 // azi =      24 ele =        62 
4.833e+00 // azi =      24 ele =        64 
4.700e+00 // azi =      24 ele =        66 
3.725e+00 // azi =      24 ele =        68 
2.912e+00 // azi =      24 ele =        70 
2.454e+00 // azi =      24 ele =        72 
2.530e+00 // azi =      24 ele =        74 
2.528e+00 // azi =      24 ele =        76 
2.432e+00 // azi =      24 ele =        78 
2.371e+00 // azi =      24 ele =        80 
2.343e+00 // azi =      24 ele =        82 
2.330e+00 // azi =      24 ele =        84 
2.324e+00 // azi =      24 ele =        86 
2.320e+00 // azi =      24 ele =        88 
2.318e+00 // azi =      24 ele =        90 
3.619e+00 // azi =      26 ele =         0 
3.536e+00 // azi =      26 ele =         2 
3.538e+00 // azi =      26 ele =         4 
3.538e+00 // azi =      26 ele =         6 
3.534e+00 // azi =      26 ele =         8 
3.524e+00 // azi =      26 ele =        10 
3.508e+00 // azi =      26 ele =        12 
3.491e+00 // azi =      26 ele =        14 
3.674e+00 // azi =      26 ele =        16 
3.706e+00 // azi =      26 ele =        18 
3.738e+00 // azi =      26 ele =        20 
3.753e+00 // azi =      26 ele =        22 
3.747e+00 // azi =      26 ele =        24 
3.719e+00 // azi =      26 ele =        26 
3.675e+00 // azi =      26 ele =        28 
3.679e+00 // azi =      26 ele =        30 
3.981e+00 // azi =      26 ele =        32 
4.108e+00 // azi =      26 ele =        34 
4.231e+00 // azi =      26 ele =        36 
4.337e+00 // azi =      26 ele =        38 
4.426e+00 // azi =      26 ele =        40 
4.714e+00 // azi =      26 ele =        42 
4.731e+00 // azi =      26 ele =        44 
4.942e+00 // azi =      26 ele =        46 
5.006e+00 // azi =      26 ele =        48 
4.944e+00 // azi =      26 ele =        50 
4.992e+00 // azi =      26 ele =        52 
5.035e+00 // azi =      26 ele =        54 
5.053e+00 // azi =      26 ele =        56 
5.088e+00 // azi =      26 ele =        58 
5.133e+00 // azi =      26 ele =        60 
5.129e+00 // azi =      26 ele =        62 
4.837e+00 // azi =      26 ele =        64 
4.707e+00 // azi =      26 ele =        66 
3.700e+00 // azi =      26 ele =        68 
2.896e+00 // azi =      26 ele =        70 
2.403e+00 // azi =      26 ele =        72 
2.449e+00 // azi =      26 ele =        74 
2.448e+00 // azi =      26 ele =        76 
2.389e+00 // azi =      26 ele =        78 
2.350e+00 // azi =      26 ele =        80 
2.333e+00 // azi =      26 ele =        82 
2.325e+00 // azi =      26 ele =        84 
2.321e+00 // azi =      26 ele =        86 
2.319e+00 // azi =      26 ele =        88 
2.318e+00 // azi =      26 ele =        90 
3.508e+00 // azi =      28 ele =         0 
3.507e+00 // azi =      28 ele =         2 
3.504e+00 // azi =      28 ele =         4 
3.499e+00 // azi =      28 ele =         6 
3.489e+00 // azi =      28 ele =         8 
3.472e+00 // azi =      28 ele =        10 
3.446e+00 // azi =      28 ele =        12 
3.415e+00 // azi =      28 ele =        14 
3.411e+00 // azi =      28 ele =        16 
3.431e+00 // azi =      28 ele =        18 
3.675e+00 // azi =      28 ele =        20 
3.697e+00 // azi =      28 ele =        22 
3.687e+00 // azi =      28 ele =        24 
3.800e+00 // azi =      28 ele =        26 
3.694e+00 // azi =      28 ele =        28 
3.703e+00 // azi =      28 ele =        30 
3.855e+00 // azi =      28 ele =        32 
4.016e+00 // azi =      28 ele =        34 
4.177e+00 // azi =      28 ele =        36 
4.301e+00 // azi =      28 ele =        38 
4.654e+00 // azi =      28 ele =        40 
4.697e+00 // azi =      28 ele =        42 
4.685e+00 // azi =      28 ele =        44 
4.840e+00 // azi =      28 ele =        46 
4.972e+00 // azi =      28 ele =        48 
4.922e+00 // azi =      28 ele =        50 
4.980e+00 // azi =      28 ele =        52 
5.002e+00 // azi =      28 ele =        54 
5.047e+00 // azi =      28 ele =        56 
5.086e+00 // azi =      28 ele =        58 
5.133e+00 // azi =      28 ele =        60 
5.125e+00 // azi =      28 ele =        62 
4.841e+00 // azi =      28 ele =        64 