FoamFile
{
    version     2.0;
    format      ascii;
    class       dictionary;
    location    "constant";
    object      LookupTableInjection;
}
azi
List<scalar>
 8280
(
0.000e+00 // azi =       0 ele =         0 
0.000e+00 // azi =       0 ele =         2 
0.000e+00 // azi =       0 ele =         4 
0.000e+00 // azi =       0 ele =         6 
0.000e+00 // azi =       0 ele =         8 
0.000e+00 // azi =       0 ele =        10 
0.000e+00 // azi =       0 ele =        12 
0.000e+00 // azi =       0 ele =        14 
0.000e+00 // azi =       0 ele =        16 
0.000e+00 // azi =       0 ele =        18 
0.000e+00 // azi =       0 ele =        20 
0.000e+00 // azi =       0 ele =        22 
0.000e+00 // azi =       0 ele =        24 
0.000e+00 // azi =       0 ele =        26 
0.000e+00 // azi =       0 ele =        28 
0.000e+00 // azi =       0 ele =        30 
0.000e+00 // azi =       0 ele =        32 
0.000e+00 // azi =       0 ele =        34 
0.000e+00 // azi =       0 ele =        36 
0.000e+00 // azi =       0 ele =        38 
0.000e+00 // azi =       0 ele =        40 
0.000e+00 // azi =       0 ele =        42 
0.000e+00 // azi =       0 ele =        44 
0.000e+00 // azi =       0 ele =        46 
0.000e+00 // azi =       0 ele =        48 
0.000e+00 // azi =       0 ele =        50 
0.000e+00 // azi =       0 ele =        52 
0.000e+00 // azi =       0 ele =        54 
0.000e+00 // azi =       0 ele =        56 
0.000e+00 // azi =       0 ele =        58 
0.000e+00 // azi =       0 ele =        60 
0.000e+00 // azi =       0 ele =        62 
0.000e+00 // azi =       0 ele =        64 
0.000e+00 // azi =       0 ele =        66 
0.000e+00 // azi =       0 ele =        68 
0.000e+00 // azi =       0 ele =        70 
0.000e+00 // azi =       0 ele =        72 
0.000e+00 // azi =       0 ele =        74 
0.000e+00 // azi =       0 ele =        76 
0.000e+00 // azi =       0 ele =        78 
0.000e+00 // azi =       0 ele =        80 
0.000e+00 // azi =       0 ele =        82 
0.000e+00 // azi =       0 ele =        84 
0.000e+00 // azi =       0 ele =        86 
0.000e+00 // azi =       0 ele =        88 
0.000e+00 // azi =       0 ele =        90 
2.000e+00 // azi =       2 ele =         0 
2.000e+00 // azi =       2 ele =         2 
2.000e+00 // azi =       2 ele =         4 
2.000e+00 // azi =       2 ele =         6 
2.000e+00 // azi =       2 ele =         8 
2.000e+00 // azi =       2 ele =        10 
2.000e+00 // azi =       2 ele =        12 
2.000e+00 // azi =       2 ele =        14 
2.000e+00 // azi =       2 ele =        16 
2.000e+00 // azi =       2 ele =        18 
2.000e+00 // azi =       2 ele =        20 
2.000e+00 // azi =       2 ele =        22 
2.000e+00 // azi =       2 ele =        24 
2.000e+00 // azi =       2 ele =        26 
2.000e+00 // azi =       2 ele =        28 
2.000e+00 // azi =       2 ele =        30 
2.000e+00 // azi =       2 ele =        32 
2.000e+00 // azi =       2 ele =        34 
2.000e+00 // azi =       2 ele =        36 
2.000e+00 // azi =       2 ele =        38 
2.000e+00 // azi =       2 ele =        40 
2.000e+00 // azi =       2 ele =        42 
2.000e+00 // azi =       2 ele =        44 
2.000e+00 // azi =       2 ele =        46 
2.000e+00 // azi =       2 ele =        48 
2.000e+00 // azi =       2 ele =        50 
2.000e+00 // azi =       2 ele =        52 
2.000e+00 // azi =       2 ele =        54 
2.000e+00 // azi =       2 ele =        56 
2.000e+00 // azi =       2 ele =        58 
2.000e+00 // azi =       2 ele =        60 
2.000e+00 // azi =       2 ele =        62 
2.000e+00 // azi =       2 ele =        64 
2.000e+00 // azi =       2 ele =        66 
2.000e+00 // azi =       2 ele =        68 
2.000e+00 // azi =       2 ele =        70 
2.000e+00 // azi =       2 ele =        72 
2.000e+00 // azi =       2 ele =        74 
2.000e+00 // azi =       2 ele =        76 
2.000e+00 // azi =       2 ele =        78 
2.000e+00 // azi =       2 ele =        80 
2.000e+00 // azi =       2 ele =        82 
2.000e+00 // azi =       2 ele =        84 
2.000e+00 // azi =       2 ele =        86 
2.000e+00 // azi =       2 ele =        88 
2.000e+00 // azi =       2 ele =        90 
4.000e+00 // azi =       4 ele =         0 
4.000e+00 // azi =       4 ele =         2 
4.000e+00 // azi =       4 ele =         4 
4.000e+00 // azi =       4 ele =         6 
4.000e+00 // azi =       4 ele =         8 
4.000e+00 // azi =       4 ele =        10 
4.000e+00 // azi =       4 ele =        12 
4.000e+00 // azi =       4 ele =        14 
4.000e+00 // azi =       4 ele =        16 
4.000e+00 // azi =       4 ele =        18 
4.000e+00 // azi =       4 ele =        20 
4.000e+00 // azi =       4 ele =        22 
4.000e+00 // azi =       4 ele =        24 
4.000e+00 // azi =       4 ele =        26 
4.000e+00 // azi =       4 ele =        28 
4.000e+00 // azi =       4 ele =        30 
4.000e+00 // azi =       4 ele =        32 
4.000e+00 // azi =       4 ele =        34 
4.000e+00 // azi =       4 ele =        36 
4.000e+00 // azi =       4 ele =        38 
4.000e+00 // azi =       4 ele =        40 
4.000e+00 // azi =       4 ele =        42 
4.000e+00 // azi =       4 ele =        44 
4.000e+00 // azi =       4 ele =        46 
4.000e+00 // azi =       4 ele =        48 
4.000e+00 // azi =       4 ele =        50 
4.000e+00 // azi =       4 ele =        52 
4.000e+00 // azi =       4 ele =        54 
4.000e+00 // azi =       4 ele =        56 
4.000e+00 // azi =       4 ele =        58 
4.000e+00 // azi =       4 ele =        60 
4.000e+00 // azi =       4 ele =        62 
4.000e+00 // azi =       4 ele =        64 
4.000e+00 // azi =       4 ele =        66 
4.000e+00 // azi =       4 ele =        68 
4.000e+00 // azi =       4 ele =        70 
4.000e+00 // azi =       4 ele =        72 
4.000e+00 // azi =       4 ele =        74 
4.000e+00 // azi =       4 ele =        76 
4.000e+00 // azi =       4 ele =        78 
4.000e+00 // azi =       4 ele =        80 
4.000e+00 // azi =       4 ele =        82 
4.000e+00 // azi =       4 ele =        84 
4.000e+00 // azi =       4 ele =        86 
4.000e+00 // azi =       4 ele =        88 
4.000e+00 // azi =       4 ele =        90 
6.000e+00 // azi =       6 ele =         0 
6.000e+00 // azi =       6 ele =         2 
6.000e+00 // azi =       6 ele =         4 
6.000e+00 // azi =       6 ele =         6 
6.000e+00 // azi =       6 ele =         8 
6.000e+00 // azi =       6 ele =        10 
6.000e+00 // azi =       6 ele =        12 
6.000e+00 // azi =       6 ele =        14 
6.000e+00 // azi =       6 ele =        16 
6.000e+00 // azi =       6 ele =        18 
6.000e+00 // azi =       6 ele =        20 
6.000e+00 // azi =       6 ele =        22 
6.000e+00 // azi =       6 ele =        24 
6.000e+00 // azi =       6 ele =        26 
6.000e+00 // azi =       6 ele =        28 
6.000e+00 // azi =       6 ele =        30 
6.000e+00 // azi =       6 ele =        32 
6.000e+00 // azi =       6 ele =        34 
6.000e+00 // azi =       6 ele =        36 
6.000e+00 // azi =       6 ele =        38 
6.000e+00 // azi =       6 ele =        40 
6.000e+00 // azi =       6 ele =        42 
6.000e+00 // azi =       6 ele =        44 
6.000e+00 // azi =       6 ele =        46 
6.000e+00 // azi =       6 ele =        48 
6.000e+00 // azi =       6 ele =        50 
6.000e+00 // azi =       6 ele =        52 
6.000e+00 // azi =       6 ele =        54 
6.000e+00 // azi =       6 ele =        56 
6.000e+00 // azi =       6 ele =        58 
6.000e+00 // azi =       6 ele =        60 
6.000e+00 // azi =       6 ele =        62 
6.000e+00 // azi =       6 ele =        64 
6.000e+00 // azi =       6 ele =        66 
6.000e+00 // azi =       6 ele =        68 
6.000e+00 // azi =       6 ele =        70 
6.000e+00 // azi =       6 ele =        72 
6.000e+00 // azi =       6 ele =        74 
6.000e+00 // azi =       6 ele =        76 
6.000e+00 // azi =       6 ele =        78 
6.000e+00 // azi =       6 ele =        80 
6.000e+00 // azi =       6 ele =        82 
6.000e+00 // azi =       6 ele =        84 
6.000e+00 // azi =       6 ele =        86 
6.000e+00 // azi =       6 ele =        88 
6.000e+00 // azi =       6 ele =        90 
8.000e+00 // azi =       8 ele =         0 
8.000e+00 // azi =       8 ele =         2 
8.000e+00 // azi =       8 ele =         4 
8.000e+00 // azi =       8 ele =         6 
8.000e+00 // azi =       8 ele =         8 
8.000e+00 // azi =       8 ele =        10 
8.000e+00 // azi =       8 ele =        12 
8.000e+00 // azi =       8 ele =        14 
8.000e+00 // azi =       8 ele =        16 
8.000e+00 // azi =       8 ele =        18 
8.000e+00 // azi =       8 ele =        20 
8.000e+00 // azi =       8 ele =        22 
8.000e+00 // azi =       8 ele =        24 
8.000e+00 // azi =       8 ele =        26 
8.000e+00 // azi =       8 ele =        28 
8.000e+00 // azi =       8 ele =        30 
8.000e+00 // azi =       8 ele =        32 
8.000e+00 // azi =       8 ele =        34 
8.000e+00 // azi =       8 ele =        36 
8.000e+00 // azi =       8 ele =        38 
8.000e+00 // azi =       8 ele =        40 
8.000e+00 // azi =       8 ele =        42 
8.000e+00 // azi =       8 ele =        44 
8.000e+00 // azi =       8 ele =        46 
8.000e+00 // azi =       8 ele =        48 
8.000e+00 // azi =       8 ele =        50 
8.000e+00 // azi =       8 ele =        52 
8.000e+00 // azi =       8 ele =        54 
8.000e+00 // azi =       8 ele =        56 
8.000e+00 // azi =       8 ele =        58 
8.000e+00 // azi =       8 ele =        60 
8.000e+00 // azi =       8 ele =        62 
8.000e+00 // azi =       8 ele =        64 
8.000e+00 // azi =       8 ele =        66 
8.000e+00 // azi =       8 ele =        68 
8.000e+00 // azi =       8 ele =        70 
8.000e+00 // azi =       8 ele =        72 
8.000e+00 // azi =       8 ele =        74 
8.000e+00 // azi =       8 ele =        76 
8.000e+00 // azi =       8 ele =        78 
8.000e+00 // azi =       8 ele =        80 
8.000e+00 // azi =       8 ele =        82 
8.000e+00 // azi =       8 ele =        84 
8.000e+00 // azi =       8 ele =        86 
8.000e+00 // azi =       8 ele =        88 
8.000e+00 // azi =       8 ele =        90 
1.000e+01 // azi =      10 ele =         0 
1.000e+01 // azi =      10 ele =         2 
1.000e+01 // azi =      10 ele =         4 
1.000e+01 // azi =      10 ele =         6 
1.000e+01 // azi =      10 ele =         8 
1.000e+01 // azi =      10 ele =        10 
1.000e+01 // azi =      10 ele =        12 
1.000e+01 // azi =      10 ele =        14 
1.000e+01 // azi =      10 ele =        16 
1.000e+01 // azi =      10 ele =        18 
1.000e+01 // azi =      10 ele =        20 
1.000e+01 // azi =      10 ele =        22 
1.000e+01 // azi =      10 ele =        24 
1.000e+01 // azi =      10 ele =        26 
1.000e+01 // azi =      10 ele =        28 
1.000e+01 // azi =      10 ele =        30 
1.000e+01 // azi =      10 ele =        32 
1.000e+01 // azi =      10 ele =        34 
1.000e+01 // azi =      10 ele =        36 
1.000e+01 // azi =      10 ele =        38 
1.000e+01 // azi =      10 ele =        40 
1.000e+01 // azi =      10 ele =        42 
1.000e+01 // azi =      10 ele =        44 
1.000e+01 // azi =      10 ele =        46 
1.000e+01 // azi =      10 ele =        48 
1.000e+01 // azi =      10 ele =        50 
1.000e+01 // azi =      10 ele =        52 
1.000e+01 // azi =      10 ele =        54 
1.000e+01 // azi =      10 ele =        56 
1.000e+01 // azi =      10 ele =        58 
1.000e+01 // azi =      10 ele =        60 
1.000e+01 // azi =      10 ele =        62 
1.000e+01 // azi =      10 ele =        64 
1.000e+01 // azi =      10 ele =        66 
1.000e+01 // azi =      10 ele =        68 
1.000e+01 // azi =      10 ele =        70 
1.000e+01 // azi =      10 ele =        72 
1.000e+01 // azi =      10 ele =        74 
1.000e+01 // azi =      10 ele =        76 
1.000e+01 // azi =      10 ele =        78 
1.000e+01 // azi =      10 ele =        80 
1.000e+01 // azi =      10 ele =        82 
1.000e+01 // azi =      10 ele =        84 
1.000e+01 // azi =      10 ele =        86 
1.000e+01 // azi =      10 ele =        88 
1.000e+01 // azi =      10 ele =        90 
1.200e+01 // azi =      12 ele =         0 
1.200e+01 // azi =      12 ele =         2 
1.200e+01 // azi =      12 ele =         4 
1.200e+01 // azi =      12 ele =         6 
1.200e+01 // azi =      12 ele =         8 
1.200e+01 // azi =      12 ele =        10 
1.200e+01 // azi =      12 ele =        12 
1.200e+01 // azi =      12 ele =        14 
1.200e+01 // azi =      12 ele =        16 
1.200e+01 // azi =      12 ele =        18 
1.200e+01 // azi =      12 ele =        20 
1.200e+01 // azi =      12 ele =        22 
1.200e+01 // azi =      12 ele =        24 
1.200e+01 // azi =      12 ele =        26 
1.200e+01 // azi =      12 ele =        28 
1.200e+01 // azi =      12 ele =        30 
1.200e+01 // azi =      12 ele =        32 
1.200e+01 // azi =      12 ele =        34 
1.200e+01 // azi =      12 ele =        36 
1.200e+01 // azi =      12 ele =        38 
1.200e+01 // azi =      12 ele =        40 
1.200e+01 // azi =      12 ele =        42 
1.200e+01 // azi =      12 ele =        44 
1.200e+01 // azi =      12 ele =        46 
1.200e+01 // azi =      12 ele =        48 
1.200e+01 // azi =      12 ele =        50 
1.200e+01 // azi =      12 ele =        52 
1.200e+01 // azi =      12 ele =        54 
1.200e+01 // azi =      12 ele =        56 
1.200e+01 // azi =      12 ele =        58 
1.200e+01 // azi =      12 ele =        60 
1.200e+01 // azi =      12 ele =        62 
1.200e+01 // azi =      12 ele =        64 
1.200e+01 // azi =      12 ele =        66 
1.200e+01 // azi =      12 ele =        68 
1.200e+01 // azi =      12 ele =        70 
1.200e+01 // azi =      12 ele =        72 
1.200e+01 // azi =      12 ele =        74 
1.200e+01 // azi =      12 ele =        76 
1.200e+01 // azi =      12 ele =        78 
1.200e+01 // azi =      12 ele =        80 
1.200e+01 // azi =      12 ele =        82 
1.200e+01 // azi =      12 ele =        84 
1.200e+01 // azi =      12 ele =        86 
1.200e+01 // azi =      12 ele =        88 
1.200e+01 // azi =      12 ele =        90 
1.400e+01 // azi =      14 ele =         0 
1.400e+01 // azi =      14 ele =         2 
1.400e+01 // azi =      14 ele =         4 
1.400e+01 // azi =      14 ele =         6 
1.400e+01 // azi =      14 ele =         8 
1.400e+01 // azi =      14 ele =        10 
1.400e+01 // azi =      14 ele =        12 
1.400e+01 // azi =      14 ele =        14 
1.400e+01 // azi =      14 ele =        16 
1.400e+01 // azi =      14 ele =        18 
1.400e+01 // azi =      14 ele =        20 
1.400e+01 // azi =      14 ele =        22 
1.400e+01 // azi =      14 ele =        24 
1.400e+01 // azi =      14 ele =        26 
1.400e+01 // azi =      14 ele =        28 
1.400e+01 // azi =      14 ele =        30 
1.400e+01 // azi =      14 ele =        32 
1.400e+01 // azi =      14 ele =        34 
1.400e+01 // azi =      14 ele =        36 
1.400e+01 // azi =      14 ele =        38 
1.400e+01 // azi =      14 ele =        40 
1.400e+01 // azi =      14 ele =        42 
1.400e+01 // azi =      14 ele =        44 
1.400e+01 // azi =      14 ele =        46 
1.400e+01 // azi =      14 ele =        48 
1.400e+01 // azi =      14 ele =        50 
1.400e+01 // azi =      14 ele =        52 
1.400e+01 // azi =      14 ele =        54 
1.400e+01 // azi =      14 ele =        56 
1.400e+01 // azi =      14 ele =        58 
1.400e+01 // azi =      14 ele =        60 
1.400e+01 // azi =      14 ele =        62 
1.400e+01 // azi =      14 ele =        64 
1.400e+01 // azi =      14 ele =        66 
1.400e+01 // azi =      14 ele =        68 
1.400e+01 // azi =      14 ele =        70 
1.400e+01 // azi =      14 ele =        72 
1.400e+01 // azi =      14 ele =        74 
1.400e+01 // azi =      14 ele =        76 
1.400e+01 // azi =      14 ele =        78 
1.400e+01 // azi =      14 ele =        80 
1.400e+01 // azi =      14 ele =        82 
1.400e+01 // azi =      14 ele =        84 
1.400e+01 // azi =      14 ele =        86 
1.400e+01 // azi =      14 ele =        88 
1.400e+01 // azi =      14 ele =        90 
1.600e+01 // azi =      16 ele =         0 
1.600e+01 // azi =      16 ele =         2 
1.600e+01 // azi =      16 ele =         4 
1.600e+01 // azi =      16 ele =         6 
1.600e+01 // azi =      16 ele =         8 
1.600e+01 // azi =      16 ele =        10 
1.600e+01 // azi =      16 ele =        12 
1.600e+01 // azi =      16 ele =        14 
1.600e+01 // azi =      16 ele =        16 
1.600e+01 // azi =      16 ele =        18 
1.600e+01 // azi =      16 ele =        20 
1.600e+01 // azi =      16 ele =        22 
1.600e+01 // azi =      16 ele =        24 
1.600e+01 // azi =      16 ele =        26 
1.600e+01 // azi =      16 ele =        28 
1.600e+01 // azi =      16 ele =        30 
1.600e+01 // azi =      16 ele =        32 
1.600e+01 // azi =      16 ele =        34 
1.600e+01 // azi =      16 ele =        36 
1.600e+01 // azi =      16 ele =        38 
1.600e+01 // azi =      16 ele =        40 
1.600e+01 // azi =      16 ele =        42 
1.600e+01 // azi =      16 ele =        44 
1.600e+01 // azi =      16 ele =        46 
1.600e+01 // azi =      16 ele =        48 
1.600e+01 // azi =      16 ele =        50 
1.600e+01 // azi =      16 ele =        52 
1.600e+01 // azi =      16 ele =        54 
1.600e+01 // azi =      16 ele =        56 
1.600e+01 // azi =      16 ele =        58 
1.600e+01 // azi =      16 ele =        60 
1.600e+01 // azi =      16 ele =        62 
1.600e+01 // azi =      16 ele =        64 
1.600e+01 // azi =      16 ele =        66 
1.600e+01 // azi =      16 ele =        68 
1.600e+01 // azi =      16 ele =        70 
1.600e+01 // azi =      16 ele =        72 
1.600e+01 // azi =      16 ele =        74 
1.600e+01 // azi =      16 ele =        76 
1.600e+01 // azi =      16 ele =        78 
1.600e+01 // azi =      16 ele =        80 
1.600e+01 // azi =      16 ele =        82 
1.600e+01 // azi =      16 ele =        84 
1.600e+01 // azi =      16 ele =        86 
1.600e+01 // azi =      16 ele =        88 
1.600e+01 // azi =      16 ele =        90 
1.800e+01 // azi =      18 ele =         0 
1.800e+01 // azi =      18 ele =         2 
1.800e+01 // azi =      18 ele =         4 
1.800e+01 // azi =      18 ele =         6 
1.800e+01 // azi =      18 ele =         8 
1.800e+01 // azi =      18 ele =        10 
1.800e+01 // azi =      18 ele =        12 
1.800e+01 // azi =      18 ele =        14 
1.800e+01 // azi =      18 ele =        16 
1.800e+01 // azi =      18 ele =        18 
1.800e+01 // azi =      18 ele =        20 
1.800e+01 // azi =      18 ele =        22 
1.800e+01 // azi =      18 ele =        24 
1.800e+01 // azi =      18 ele =        26 
1.800e+01 // azi =      18 ele =        28 
1.800e+01 // azi =      18 ele =        30 
1.800e+01 // azi =      18 ele =        32 
1.800e+01 // azi =      18 ele =        34 
1.800e+01 // azi =      18 ele =        36 
1.800e+01 // azi =      18 ele =        38 
1.800e+01 // azi =      18 ele =        40 
1.800e+01 // azi =      18 ele =        42 
1.800e+01 // azi =      18 ele =        44 
1.800e+01 // azi =      18 ele =        46 
1.800e+01 // azi =      18 ele =        48 
1.800e+01 // azi =      18 ele =        50 
1.800e+01 // azi =      18 ele =        52 
1.800e+01 // azi =      18 ele =        54 
1.800e+01 // azi =      18 ele =        56 
1.800e+01 // azi =      18 ele =        58 
1.800e+01 // azi =      18 ele =        60 
1.800e+01 // azi =      18 ele =        62 
1.800e+01 // azi =      18 ele =        64 
1.800e+01 // azi =      18 ele =        66 
1.800e+01 // azi =      18 ele =        68 
1.800e+01 // azi =      18 ele =        70 
1.800e+01 // azi =      18 ele =        72 
1.800e+01 // azi =      18 ele =        74 
1.800e+01 // azi =      18 ele =        76 
1.800e+01 // azi =      18 ele =        78 
1.800e+01 // azi =      18 ele =        80 
1.800e+01 // azi =      18 ele =        82 
1.800e+01 // azi =      18 ele =        84 
1.800e+01 // azi =      18 ele =        86 
1.800e+01 // azi =      18 ele =        88 
1.800e+01 // azi =      18 ele =        90 
2.000e+01 // azi =      20 ele =         0 
2.000e+01 // azi =      20 ele =         2 
2.000e+01 // azi =      20 ele =         4 
2.000e+01 // azi =      20 ele =         6 
2.000e+01 // azi =      20 ele =         8 
2.000e+01 // azi =      20 ele =        10 
2.000e+01 // azi =      20 ele =        12 
2.000e+01 // azi =      20 ele =        14 
2.000e+01 // azi =      20 ele =        16 
2.000e+01 // azi =      20 ele =        18 
2.000e+01 // azi =      20 ele =        20 
2.000e+01 // azi =      20 ele =        22 
2.000e+01 // azi =      20 ele =        24 
2.000e+01 // azi =      20 ele =        26 
2.000e+01 // azi =      20 ele =        28 
2.000e+01 // azi =      20 ele =        30 
2.000e+01 // azi =      20 ele =        32 
2.000e+01 // azi =      20 ele =        34 
2.000e+01 // azi =      20 ele =        36 
2.000e+01 // azi =      20 ele =        38 
2.000e+01 // azi =      20 ele =        40 
2.000e+01 // azi =      20 ele =        42 
2.000e+01 // azi =      20 ele =        44 
2.000e+01 // azi =      20 ele =        46 
2.000e+01 // azi =      20 ele =        48 
2.000e+01 // azi =      20 ele =        50 
2.000e+01 // azi =      20 ele =        52 
2.000e+01 // azi =      20 ele =        54 
2.000e+01 // azi =      20 ele =        56 
2.000e+01 // azi =      20 ele =        58 
2.000e+01 // azi =      20 ele =        60 
2.000e+01 // azi =      20 ele =        62 
2.000e+01 // azi =      20 ele =        64 
2.000e+01 // azi =      20 ele =        66 
2.000e+01 // azi =      20 ele =        68 
2.000e+01 // azi =      20 ele =        70 
2.000e+01 // azi =      20 ele =        72 
2.000e+01 // azi =      20 ele =        74 
2.000e+01 // azi =      20 ele =        76 
2.000e+01 // azi =      20 ele =        78 
2.000e+01 // azi =      20 ele =        80 
2.000e+01 // azi =      20 ele =        82 
2.000e+01 // azi =      20 ele =        84 
2.000e+01 // azi =      20 ele =        86 
2.000e+01 // azi =      20 ele =        88 
2.000e+01 // azi =      20 ele =        90 
2.200e+01 // azi =      22 ele =         0 
2.200e+01 // azi =      22 ele =         2 
2.200e+01 // azi =      22 ele =         4 
2.200e+01 // azi =      22 ele =         6 
2.200e+01 // azi =      22 ele =         8 
2.200e+01 // azi =      22 ele =        10 
2.200e+01 // azi =      22 ele =        12 
2.200e+01 // azi =      22 ele =        14 
2.200e+01 // azi =      22 ele =        16 
2.200e+01 // azi =      22 ele =        18 
2.200e+01 // azi =      22 ele =        20 
2.200e+01 // azi =      22 ele =        22 
2.200e+01 // azi =      22 ele =        24 
2.200e+01 // azi =      22 ele =        26 
2.200e+01 // azi =      22 ele =        28 
2.200e+01 // azi =      22 ele =        30 
2.200e+01 // azi =      22 ele =        32 
2.200e+01 // azi =      22 ele =        34 
2.200e+01 // azi =      22 ele =        36 
2.200e+01 // azi =      22 ele =        38 
2.200e+01 // azi =      22 ele =        40 
2.200e+01 // azi =      22 ele =        42 
2.200e+01 // azi =      22 ele =        44 
2.200e+01 // azi =      22 ele =        46 
2.200e+01 // azi =      22 ele =        48 
2.200e+01 // azi =      22 ele =        50 
2.200e+01 // azi =      22 ele =        52 
2.200e+01 // azi =      22 ele =        54 
2.200e+01 // azi =      22 ele =        56 
2.200e+01 // azi =      22 ele =        58 
2.200e+01 // azi =      22 ele =        60 
2.200e+01 // azi =      22 ele =        62 
2.200e+01 // azi =      22 ele =        64 
2.200e+01 // azi =      22 ele =        66 
2.200e+01 // azi =      22 ele =        68 
2.200e+01 // azi =      22 ele =        70 
2.200e+01 // azi =      22 ele =        72 
2.200e+01 // azi =      22 ele =        74 
2.200e+01 // azi =      22 ele =        76 
2.200e+01 // azi =      22 ele =        78 
2.200e+01 // azi =      22 ele =        80 
2.200e+01 // azi =      22 ele =        82 
2.200e+01 // azi =      22 ele =        84 
2.200e+01 // azi =      22 ele =        86 
2.200e+01 // azi =      22 ele =        88 
2.200e+01 // azi =      22 ele =        90 
2.400e+01 // azi =      24 ele =         0 
2.400e+01 // azi =      24 ele =         2 
2.400e+01 // azi =      24 ele =         4 
2.400e+01 // azi =      24 ele =         6 
2.400e+01 // azi =      24 ele =         8 
2.400e+01 // azi =      24 ele =        10 
2.400e+01 // azi =      24 ele =        12 
2.400e+01 // azi =      24 ele =        14 
2.400e+01 // azi =      24 ele =        16 
2.400e+01 // azi =      24 ele =        18 
2.400e+01 // azi =      24 ele =        20 
2.400e+01 // azi =      24 ele =        22 
2.400e+01 // azi =      24 ele =        24 
2.400e+01 // azi =      24 ele =        26 
2.400e+01 // azi =      24 ele =        28 
2.400e+01 // azi =      24 ele =        30 
2.400e+01 // azi =      24 ele =        32 
2.400e+01 // azi =      24 ele =        34 
2.400e+01 // azi =      24 ele =        36 
2.400e+01 // azi =      24 ele =        38 
2.400e+01 // azi =      24 ele =        40 
2.400e+01 // azi =      24 ele =        42 
2.400e+01 // azi =      24 ele =        44 
2.400e+01 // azi =      24 ele =        46 
2.400e+01 // azi =      24 ele =        48 
2.400e+01 // azi =      24 ele =        50 
2.400e+01 // azi =      24 ele =        52 
2.400e+01 // azi =      24 ele =        54 
2.400e+01 // azi =      24 ele =        56 
2.400e+01 // azi =      24 ele =        58 
2.400e+01 // azi =      24 ele =        60 
2.400e+01 // azi =      24 ele =        62 
2.400e+01 // azi =      24 ele =        64 
2.400e+01 // azi =      24 ele =        66 
2.400e+01 // azi =      24 ele =        68 
2.400e+01 // azi =      24 ele =        70 
2.400e+01 // azi =      24 ele =        72 
2.400e+01 // azi =      24 ele =        74 
2.400e+01 // azi =      24 ele =        76 
2.400e+01 // azi =      24 ele =        78 
2.400e+01 // azi =      24 ele =        80 
2.400e+01 // azi =      24 ele =        82 
2.400e+01 // azi =      24 ele =        84 
2.400e+01 // azi =      24 ele =        86 
2.400e+01 // azi =      24 ele =        88 
2.400e+01 // azi =      24 ele =        90 
2.600e+01 // azi =      26 ele =         0 
2.600e+01 // azi =      26 ele =         2 
2.600e+01 // azi =      26 ele =         4 
2.600e+01 // azi =      26 ele =         6 
2.600e+01 // azi =      26 ele =         8 
2.600e+01 // azi =      26 ele =        10 
2.600e+01 // azi =      26 ele =        12 
2.600e+01 // azi =      26 ele =        14 
2.600e+01 // azi =      26 ele =        16 
2.600e+01 // azi =      26 ele =        18 
2.600e+01 // azi =      26 ele =        20 
2.600e+01 // azi =      26 ele =        22 
2.600e+01 // azi =      26 ele =        24 
2.600e+01 // azi =      26 ele =        26 
2.600e+01 // azi =      26 ele =        28 
2.600e+01 // azi =      26 ele =        30 
2.600e+01 // azi =      26 ele =        32 
2.600e+01 // azi =      26 ele =        34 
2.600e+01 // azi =      26 ele =        36 
2.600e+01 // azi =      26 ele =        38 
2.600e+01 // azi =      26 ele =        40 
2.600e+01 // azi =      26 ele =        42 
2.600e+01 // azi =      26 ele =        44 
2.600e+01 // azi =      26 ele =        46 
2.600e+01 // azi =      26 ele =        48 
2.600e+01 // azi =      26 ele =        50 
2.600e+01 // azi =      26 ele =        52 
2.600e+01 // azi =      26 ele =        54 
2.600e+01 // azi =      26 ele =        56 
2.600e+01 // azi =      26 ele =        58 
2.600e+01 // azi =      26 ele =        60 
2.600e+01 // azi =      26 ele =        62 
2.600e+01 // azi =      26 ele =        64 
2.600e+01 // azi =      26 ele =        66 
2.600e+01 // azi =      26 ele =        68 
2.600e+01 // azi =      26 ele =        70 
2.600e+01 // azi =      26 ele =        72 
2.600e+01 // azi =      26 ele =        74 
2.600e+01 // azi =      26 ele =        76 
2.600e+01 // azi =      26 ele =        78 
2.600e+01 // azi =      26 ele =        80 
2.600e+01 // azi =      26 ele =        82 
2.600e+01 // azi =      26 ele =        84 
2.600e+01 // azi =      26 ele =        86 
2.600e+01 // azi =      26 ele =        88 
2.600e+01 // azi =      26 ele =        90 
2.800e+01 // azi =      28 ele =         0 
2.800e+01 // azi =      28 ele =         2 
2.800e+01 // azi =      28 ele =         4 
2.800e+01 // azi =      28 ele =         6 
2.800e+01 // azi =      28 ele =         8 
2.800e+01 // azi =      28 ele =        10 
2.800e+01 // azi =      28 ele =        12 
2.800e+01 // azi =      28 ele =        14 
2.800e+01 // azi =      28 ele =        16 
2.800e+01 // azi =      28 ele =        18 
2.800e+01 // azi =      28 ele =        20 
2.800e+01 // azi =      28 ele =        22 
2.800e+01 // azi =      28 ele =        24 
2.800e+01 // azi =      28 ele =        26 
2.800e+01 // azi =      28 ele =        28 
2.800e+01 // azi =      28 ele =        30 
2.800e+01 // azi =      28 ele =        32 
2.800e+01 // azi =      28 ele =        34 
2.800e+01 // azi =      28 ele =        36 
2.800e+01 // azi =      28 ele =        38 
2.800e+01 // azi =      28 ele =        40 
2.800e+01 // azi =      28 ele =        42 
2.800e+01 // azi =      28 ele =        44 
2.800e+01 // azi =      28 ele =        46 
2.800e+01 // azi =      28 ele =        48 
2.800e+01 // azi =      28 ele =        50 
2.800e+01 // azi =      28 ele =        52 
2.800e+01 // azi =      28 ele =        54 
2.800e+01 // azi =      28 ele =        56 
2.800e+01 // azi =      28 ele =        58 
2.800e+01 // azi =      28 ele =        60 
2.800e+01 // azi =      28 ele =        62 
2.800e+01 // azi =      28 ele =        64 