FoamFile
{
    version     2.0;
    format      ascii;
    class       dictionary;
    location    "constant";
    object      LookupTableInjection;
}
dv50
List<scalar>
 8280
(
1.503e-03 // azi =       0 ele =         0 
1.700e-03 // azi =       0 ele =         2 
1.688e-03 // azi =       0 ele =         4 
1.673e-03 // azi =       0 ele =         6 
1.652e-03 // azi =       0 ele =         8 
1.620e-03 // azi =       0 ele =        10 
1.569e-03 // azi =       0 ele =        12 
1.471e-03 // azi =       0 ele =        14 
1.480e-03 // azi =       0 ele =        16 
1.628e-03 // azi =       0 ele =        18 
1.746e-03 // azi =       0 ele =        20 
1.855e-03 // azi =       0 ele =        22 
1.969e-03 // azi =       0 ele =        24 
2.102e-03 // azi =       0 ele =        26 
2.426e-03 // azi =       0 ele =        28 
2.549e-03 // azi =       0 ele =        30 
2.472e-03 // azi =       0 ele =        32 
2.655e-03 // azi =       0 ele =        34 
2.714e-03 // azi =       0 ele =        36 
2.782e-03 // azi =       0 ele =        38 
2.865e-03 // azi =       0 ele =        40 
2.971e-03 // azi =       0 ele =        42 
3.161e-03 // azi =       0 ele =        44 
3.163e-03 // azi =       0 ele =        46 
3.073e-03 // azi =       0 ele =        48 
3.009e-03 // azi =       0 ele =        50 
2.961e-03 // azi =       0 ele =        52 
2.922e-03 // azi =       0 ele =        54 
2.888e-03 // azi =       0 ele =        56 
2.753e-03 // azi =       0 ele =        58 
2.831e-03 // azi =       0 ele =        60 
2.417e-03 // azi =       0 ele =        62 
2.148e-03 // azi =       0 ele =        64 
1.917e-03 // azi =       0 ele =        66 
1.689e-03 // azi =       0 ele =        68 
1.456e-03 // azi =       0 ele =        70 
9.701e-04 // azi =       0 ele =        72 
7.594e-04 // azi =       0 ele =        74 
6.384e-04 // azi =       0 ele =        76 
6.871e-04 // azi =       0 ele =        78 
6.850e-04 // azi =       0 ele =        80 
6.721e-04 // azi =       0 ele =        82 
6.592e-04 // azi =       0 ele =        84 
6.488e-04 // azi =       0 ele =        86 
6.411e-04 // azi =       0 ele =        88 
6.492e-04 // azi =       0 ele =        90 
1.494e-03 // azi =       2 ele =         0 
1.495e-03 // azi =       2 ele =         2 
1.684e-03 // azi =       2 ele =         4 
1.670e-03 // azi =       2 ele =         6 
1.651e-03 // azi =       2 ele =         8 
1.625e-03 // azi =       2 ele =        10 
1.588e-03 // azi =       2 ele =        12 
1.543e-03 // azi =       2 ele =        14 
1.559e-03 // azi =       2 ele =        16 
1.650e-03 // azi =       2 ele =        18 
1.750e-03 // azi =       2 ele =        20 
1.850e-03 // azi =       2 ele =        22 
1.955e-03 // azi =       2 ele =        24 
2.074e-03 // azi =       2 ele =        26 
2.394e-03 // azi =       2 ele =        28 
2.453e-03 // azi =       2 ele =        30 
2.604e-03 // azi =       2 ele =        32 
2.648e-03 // azi =       2 ele =        34 
2.704e-03 // azi =       2 ele =        36 
2.772e-03 // azi =       2 ele =        38 
2.851e-03 // azi =       2 ele =        40 
2.948e-03 // azi =       2 ele =        42 
3.115e-03 // azi =       2 ele =        44 
3.128e-03 // azi =       2 ele =        46 
3.060e-03 // azi =       2 ele =        48 
3.002e-03 // azi =       2 ele =        50 
2.956e-03 // azi =       2 ele =        52 
2.917e-03 // azi =       2 ele =        54 
2.884e-03 // azi =       2 ele =        56 
2.739e-03 // azi =       2 ele =        58 
2.633e-03 // azi =       2 ele =        60 
2.459e-03 // azi =       2 ele =        62 
2.150e-03 // azi =       2 ele =        64 
1.922e-03 // azi =       2 ele =        66 
1.693e-03 // azi =       2 ele =        68 
1.457e-03 // azi =       2 ele =        70 
9.729e-04 // azi =       2 ele =        72 
7.838e-04 // azi =       2 ele =        74 
6.545e-04 // azi =       2 ele =        76 
6.945e-04 // azi =       2 ele =        78 
6.874e-04 // azi =       2 ele =        80 
6.724e-04 // azi =       2 ele =        82 
6.589e-04 // azi =       2 ele =        84 
6.484e-04 // azi =       2 ele =        86 
6.409e-04 // azi =       2 ele =        88 
6.492e-04 // azi =       2 ele =        90 
1.485e-03 // azi =       4 ele =         0 
1.486e-03 // azi =       4 ele =         2 
1.487e-03 // azi =       4 ele =         4 
1.669e-03 // azi =       4 ele =         6 
1.654e-03 // azi =       4 ele =         8 
1.637e-03 // azi =       4 ele =        10 
1.620e-03 // azi =       4 ele =        12 
1.611e-03 // azi =       4 ele =        14 
1.631e-03 // azi =       4 ele =        16 
1.686e-03 // azi =       4 ele =        18 
1.760e-03 // azi =       4 ele =        20 
1.843e-03 // azi =       4 ele =        22 
1.932e-03 // azi =       4 ele =        24 
2.025e-03 // azi =       4 ele =        26 
2.115e-03 // azi =       4 ele =        28 
2.388e-03 // azi =       4 ele =        30 
2.601e-03 // azi =       4 ele =        32 
2.639e-03 // azi =       4 ele =        34 
2.692e-03 // azi =       4 ele =        36 
2.757e-03 // azi =       4 ele =        38 
2.829e-03 // azi =       4 ele =        40 
2.908e-03 // azi =       4 ele =        42 
3.058e-03 // azi =       4 ele =        44 
3.075e-03 // azi =       4 ele =        46 
3.035e-03 // azi =       4 ele =        48 
2.990e-03 // azi =       4 ele =        50 
2.949e-03 // azi =       4 ele =        52 
2.912e-03 // azi =       4 ele =        54 
2.879e-03 // azi =       4 ele =        56 
2.715e-03 // azi =       4 ele =        58 
2.510e-03 // azi =       4 ele =        60 
2.412e-03 // azi =       4 ele =        62 
2.142e-03 // azi =       4 ele =        64 
1.924e-03 // azi =       4 ele =        66 
1.696e-03 // azi =       4 ele =        68 
1.461e-03 // azi =       4 ele =        70 
9.804e-04 // azi =       4 ele =        72 
8.303e-04 // azi =       4 ele =        74 
6.831e-04 // azi =       4 ele =        76 
7.033e-04 // azi =       4 ele =        78 
6.898e-04 // azi =       4 ele =        80 
6.726e-04 // azi =       4 ele =        82 
6.585e-04 // azi =       4 ele =        84 
6.480e-04 // azi =       4 ele =        86 
6.407e-04 // azi =       4 ele =        88 
6.492e-04 // azi =       4 ele =        90 
1.476e-03 // azi =       6 ele =         0 
1.476e-03 // azi =       6 ele =         2 
1.477e-03 // azi =       6 ele =         4 
1.478e-03 // azi =       6 ele =         6 
1.657e-03 // azi =       6 ele =         8 
1.646e-03 // azi =       6 ele =        10 
1.640e-03 // azi =       6 ele =        12 
1.643e-03 // azi =       6 ele =        14 
1.664e-03 // azi =       6 ele =        16 
1.706e-03 // azi =       6 ele =        18 
1.764e-03 // azi =       6 ele =        20 
1.833e-03 // azi =       6 ele =        22 
1.906e-03 // azi =       6 ele =        24 
1.978e-03 // azi =       6 ele =        26 
2.040e-03 // azi =       6 ele =        28 
2.337e-03 // azi =       6 ele =        30 
2.581e-03 // azi =       6 ele =        32 
2.621e-03 // azi =       6 ele =        34 
2.675e-03 // azi =       6 ele =        36 
2.738e-03 // azi =       6 ele =        38 
2.805e-03 // azi =       6 ele =        40 
2.870e-03 // azi =       6 ele =        42 
2.919e-03 // azi =       6 ele =        44 
3.034e-03 // azi =       6 ele =        46 
3.010e-03 // azi =       6 ele =        48 
2.977e-03 // azi =       6 ele =        50 
2.941e-03 // azi =       6 ele =        52 
2.906e-03 // azi =       6 ele =        54 
2.873e-03 // azi =       6 ele =        56 
2.688e-03 // azi =       6 ele =        58 
2.438e-03 // azi =       6 ele =        60 
2.372e-03 // azi =       6 ele =        62 
2.133e-03 // azi =       6 ele =        64 
1.924e-03 // azi =       6 ele =        66 
1.699e-03 // azi =       6 ele =        68 
1.466e-03 // azi =       6 ele =        70 
9.905e-04 // azi =       6 ele =        72 
7.180e-04 // azi =       6 ele =        74 
7.183e-04 // azi =       6 ele =        76 
7.130e-04 // azi =       6 ele =        78 
6.919e-04 // azi =       6 ele =        80 
6.726e-04 // azi =       6 ele =        82 
6.580e-04 // azi =       6 ele =        84 
6.476e-04 // azi =       6 ele =        86 
6.405e-04 // azi =       6 ele =        88 
6.492e-04 // azi =       6 ele =        90 
1.378e-03 // azi =       8 ele =         0 
1.381e-03 // azi =       8 ele =         2 
1.383e-03 // azi =       8 ele =         4 
1.387e-03 // azi =       8 ele =         6 
1.390e-03 // azi =       8 ele =         8 
1.646e-03 // azi =       8 ele =        10 
1.640e-03 // azi =       8 ele =        12 
1.645e-03 // azi =       8 ele =        14 
1.666e-03 // azi =       8 ele =        16 
1.704e-03 // azi =       8 ele =        18 
1.757e-03 // azi =       8 ele =        20 
1.819e-03 // azi =       8 ele =        22 
1.884e-03 // azi =       8 ele =        24 
1.943e-03 // azi =       8 ele =        26 
1.991e-03 // azi =       8 ele =        28 
2.513e-03 // azi =       8 ele =        30 
2.542e-03 // azi =       8 ele =        32 
2.590e-03 // azi =       8 ele =        34 
2.652e-03 // azi =       8 ele =        36 
2.719e-03 // azi =       8 ele =        38 
2.785e-03 // azi =       8 ele =        40 
2.843e-03 // azi =       8 ele =        42 
2.884e-03 // azi =       8 ele =        44 
3.005e-03 // azi =       8 ele =        46 
2.989e-03 // azi =       8 ele =        48 
2.964e-03 // azi =       8 ele =        50 
2.933e-03 // azi =       8 ele =        52 
2.899e-03 // azi =       8 ele =        54 
2.865e-03 // azi =       8 ele =        56 
2.631e-03 // azi =       8 ele =        58 
2.451e-03 // azi =       8 ele =        60 
2.405e-03 // azi =       8 ele =        62 
2.308e-03 // azi =       8 ele =        64 
1.923e-03 // azi =       8 ele =        66 
1.701e-03 // azi =       8 ele =        68 
1.472e-03 // azi =       8 ele =        70 
9.855e-04 // azi =       8 ele =        72 
7.580e-04 // azi =       8 ele =        74 
7.571e-04 // azi =       8 ele =        76 
7.228e-04 // azi =       8 ele =        78 
6.937e-04 // azi =       8 ele =        80 
6.723e-04 // azi =       8 ele =        82 
6.574e-04 // azi =       8 ele =        84 
6.471e-04 // azi =       8 ele =        86 
6.403e-04 // azi =       8 ele =        88 
6.492e-04 // azi =       8 ele =        90 
1.373e-03 // azi =      10 ele =         0 
1.374e-03 // azi =      10 ele =         2 
1.377e-03 // azi =      10 ele =         4 
1.380e-03 // azi =      10 ele =         6 
1.384e-03 // azi =      10 ele =         8 
1.388e-03 // azi =      10 ele =        10 
1.393e-03 // azi =      10 ele =        12 
1.620e-03 // azi =      10 ele =        14 
1.639e-03 // azi =      10 ele =        16 
1.682e-03 // azi =      10 ele =        18 
1.740e-03 // azi =      10 ele =        20 
1.804e-03 // azi =      10 ele =        22 
1.866e-03 // azi =      10 ele =        24 
1.922e-03 // azi =      10 ele =        26 
1.965e-03 // azi =      10 ele =        28 
2.198e-03 // azi =      10 ele =        30 
2.481e-03 // azi =      10 ele =        32 
2.549e-03 // azi =      10 ele =        34 
2.625e-03 // azi =      10 ele =        36 
2.700e-03 // azi =      10 ele =        38 
2.770e-03 // azi =      10 ele =        40 
2.829e-03 // azi =      10 ele =        42 
2.693e-03 // azi =      10 ele =        44 
2.773e-03 // azi =      10 ele =        46 
2.974e-03 // azi =      10 ele =        48 
2.953e-03 // azi =      10 ele =        50 
2.925e-03 // azi =      10 ele =        52 
2.892e-03 // azi =      10 ele =        54 
2.609e-03 // azi =      10 ele =        56 
2.614e-03 // azi =      10 ele =        58 
2.451e-03 // azi =      10 ele =        60 
2.396e-03 // azi =      10 ele =        62 
2.294e-03 // azi =      10 ele =        64 
1.922e-03 // azi =      10 ele =        66 
1.703e-03 // azi =      10 ele =        68 
1.479e-03 // azi =      10 ele =        70 
1.001e-03 // azi =      10 ele =        72 
8.003e-04 // azi =      10 ele =        74 
7.979e-04 // azi =      10 ele =        76 
7.318e-04 // azi =      10 ele =        78 
6.949e-04 // azi =      10 ele =        80 
6.718e-04 // azi =      10 ele =        82 
6.567e-04 // azi =      10 ele =        84 
6.466e-04 // azi =      10 ele =        86 
6.400e-04 // azi =      10 ele =        88 
6.492e-04 // azi =      10 ele =        90 
1.366e-03 // azi =      12 ele =         0 
1.367e-03 // azi =      12 ele =         2 
1.369e-03 // azi =      12 ele =         4 
1.372e-03 // azi =      12 ele =         6 
1.376e-03 // azi =      12 ele =         8 
1.380e-03 // azi =      12 ele =        10 
1.384e-03 // azi =      12 ele =        12 
1.388e-03 // azi =      12 ele =        14 
1.398e-03 // azi =      12 ele =        16 
1.642e-03 // azi =      12 ele =        18 
1.717e-03 // azi =      12 ele =        20 
1.788e-03 // azi =      12 ele =        22 
1.855e-03 // azi =      12 ele =        24 
1.913e-03 // azi =      12 ele =        26 
1.890e-03 // azi =      12 ele =        28 
2.146e-03 // azi =      12 ele =        30 
2.114e-03 // azi =      12 ele =        32 
2.501e-03 // azi =      12 ele =        34 
2.598e-03 // azi =      12 ele =        36 
2.684e-03 // azi =      12 ele =        38 
2.760e-03 // azi =      12 ele =        40 
2.633e-03 // azi =      12 ele =        42 
2.717e-03 // azi =      12 ele =        44 
2.783e-03 // azi =      12 ele =        46 
2.727e-03 // azi =      12 ele =        48 
2.945e-03 // azi =      12 ele =        50 
2.918e-03 // azi =      12 ele =        52 
2.603e-03 // azi =      12 ele =        54 
2.593e-03 // azi =      12 ele =        56 
2.602e-03 // azi =      12 ele =        58 
2.490e-03 // azi =      12 ele =        60 
2.402e-03 // azi =      12 ele =        62 
2.281e-03 // azi =      12 ele =        64 
1.920e-03 // azi =      12 ele =        66 
1.704e-03 // azi =      12 ele =        68 
1.114e-03 // azi =      12 ele =        70 
1.013e-03 // azi =      12 ele =        72 
8.418e-04 // azi =      12 ele =        74 
8.373e-04 // azi =      12 ele =        76 
7.387e-04 // azi =      12 ele =        78 
6.954e-04 // azi =      12 ele =        80 
6.711e-04 // azi =      12 ele =        82 
6.558e-04 // azi =      12 ele =        84 
6.461e-04 // azi =      12 ele =        86 
6.398e-04 // azi =      12 ele =        88 
6.492e-04 // azi =      12 ele =        90 
1.358e-03 // azi =      14 ele =         0 
1.359e-03 // azi =      14 ele =         2 
1.360e-03 // azi =      14 ele =         4 
1.363e-03 // azi =      14 ele =         6 
1.366e-03 // azi =      14 ele =         8 
1.371e-03 // azi =      14 ele =        10 
1.375e-03 // azi =      14 ele =        12 
1.376e-03 // azi =      14 ele =        14 
1.382e-03 // azi =      14 ele =        16 
1.408e-03 // azi =      14 ele =        18 
1.446e-03 // azi =      14 ele =        20 
1.777e-03 // azi =      14 ele =        22 
1.759e-03 // azi =      14 ele =        24 
1.822e-03 // azi =      14 ele =        26 
1.898e-03 // azi =      14 ele =        28 
2.049e-03 // azi =      14 ele =        30 
2.076e-03 // azi =      14 ele =        32 
2.120e-03 // azi =      14 ele =        34 
2.577e-03 // azi =      14 ele =        36 
2.436e-03 // azi =      14 ele =        38 
2.519e-03 // azi =      14 ele =        40 
2.626e-03 // azi =      14 ele =        42 
2.786e-03 // azi =      14 ele =        44 
2.828e-03 // azi =      14 ele =        46 
2.711e-03 // azi =      14 ele =        48 
2.647e-03 // azi =      14 ele =        50 
2.913e-03 // azi =      14 ele =        52 
2.587e-03 // azi =      14 ele =        54 
2.575e-03 // azi =      14 ele =        56 
2.591e-03 // azi =      14 ele =        58 
2.590e-03 // azi =      14 ele =        60 
2.407e-03 // azi =      14 ele =        62 
2.265e-03 // azi =      14 ele =        64 
2.142e-03 // azi =      14 ele =        66 
1.704e-03 // azi =      14 ele =        68 
1.120e-03 // azi =      14 ele =        70 
1.023e-03 // azi =      14 ele =        72 
8.725e-04 // azi =      14 ele =        74 
8.659e-04 // azi =      14 ele =        76 
7.428e-04 // azi =      14 ele =        78 
6.951e-04 // azi =      14 ele =        80 
6.700e-04 // azi =      14 ele =        82 
6.549e-04 // azi =      14 ele =        84 
6.455e-04 // azi =      14 ele =        86 
6.395e-04 // azi =      14 ele =        88 
6.357e-04 // azi =      14 ele =        90 
1.349e-03 // azi =      16 ele =         0 
1.349e-03 // azi =      16 ele =         2 
1.349e-03 // azi =      16 ele =         4 
1.351e-03 // azi =      16 ele =         6 
1.354e-03 // azi =      16 ele =         8 
1.359e-03 // azi =      16 ele =        10 
1.365e-03 // azi =      16 ele =        12 
1.370e-03 // azi =      16 ele =        14 
1.376e-03 // azi =      16 ele =        16 
1.399e-03 // azi =      16 ele =        18 
1.436e-03 // azi =      16 ele =        20 
1.395e-03 // azi =      16 ele =        22 
1.727e-03 // azi =      16 ele =        24 
1.790e-03 // azi =      16 ele =        26 
1.873e-03 // azi =      16 ele =        28 
2.037e-03 // azi =      16 ele =        30 
2.051e-03 // azi =      16 ele =        32 
2.088e-03 // azi =      16 ele =        34 
1.921e-03 // azi =      16 ele =        36 
2.401e-03 // azi =      16 ele =        38 
2.478e-03 // azi =      16 ele =        40 
2.587e-03 // azi =      16 ele =        42 
2.762e-03 // azi =      16 ele =        44 
2.804e-03 // azi =      16 ele =        46 
2.671e-03 // azi =      16 ele =        48 
2.606e-03 // azi =      16 ele =        50 
2.286e-03 // azi =      16 ele =        52 
2.567e-03 // azi =      16 ele =        54 
2.551e-03 // azi =      16 ele =        56 
2.570e-03 // azi =      16 ele =        58 
2.583e-03 // azi =      16 ele =        60 
2.385e-03 // azi =      16 ele =        62 
2.242e-03 // azi =      16 ele =        64 
2.124e-03 // azi =      16 ele =        66 
1.486e-03 // azi =      16 ele =        68 
1.124e-03 // azi =      16 ele =        70 
1.030e-03 // azi =      16 ele =        72 
8.763e-04 // azi =      16 ele =        74 
8.697e-04 // azi =      16 ele =        76 
7.433e-04 // azi =      16 ele =        78 
6.938e-04 // azi =      16 ele =        80 
6.685e-04 // azi =      16 ele =        82 
6.538e-04 // azi =      16 ele =        84 
6.448e-04 // azi =      16 ele =        86 
6.392e-04 // azi =      16 ele =        88 
6.357e-04 // azi =      16 ele =        90 
1.339e-03 // azi =      18 ele =         0 
1.337e-03 // azi =      18 ele =         2 
1.336e-03 // azi =      18 ele =         4 
1.336e-03 // azi =      18 ele =         6 
1.338e-03 // azi =      18 ele =         8 
1.343e-03 // azi =      18 ele =        10 
1.350e-03 // azi =      18 ele =        12 
1.358e-03 // azi =      18 ele =        14 
1.369e-03 // azi =      18 ele =        16 
1.315e-03 // azi =      18 ele =        18 
1.331e-03 // azi =      18 ele =        20 
1.364e-03 // azi =      18 ele =        22 
1.418e-03 // azi =      18 ele =        24 
1.496e-03 // azi =      18 ele =        26 
1.793e-03 // azi =      18 ele =        28 
1.876e-03 // azi =      18 ele =        30 
2.016e-03 // azi =      18 ele =        32 
1.850e-03 // azi =      18 ele =        34 
1.876e-03 // azi =      18 ele =        36 
1.937e-03 // azi =      18 ele =        38 
2.039e-03 // azi =      18 ele =        40 
2.503e-03 // azi =      18 ele =        42 
2.603e-03 // azi =      18 ele =        44 
2.669e-03 // azi =      18 ele =        46 
2.595e-03 // azi =      18 ele =        48 
2.292e-03 // azi =      18 ele =        50 
2.249e-03 // azi =      18 ele =        52 
2.542e-03 // azi =      18 ele =        54 
2.520e-03 // azi =      18 ele =        56 
2.528e-03 // azi =      18 ele =        58 
2.427e-03 // azi =      18 ele =        60 
2.327e-03 // azi =      18 ele =        62 
2.209e-03 // azi =      18 ele =        64 
2.103e-03 // azi =      18 ele =        66 
1.495e-03 // azi =      18 ele =        68 
1.126e-03 // azi =      18 ele =        70 
7.593e-04 // azi =      18 ele =        72 
8.540e-04 // azi =      18 ele =        74 
8.494e-04 // azi =      18 ele =        76 
7.402e-04 // azi =      18 ele =        78 
6.916e-04 // azi =      18 ele =        80 
6.668e-04 // azi =      18 ele =        82 
6.526e-04 // azi =      18 ele =        84 
6.442e-04 // azi =      18 ele =        86 
6.389e-04 // azi =      18 ele =        88 
6.357e-04 // azi =      18 ele =        90 
1.107e-03 // azi =      20 ele =         0 
1.110e-03 // azi =      20 ele =         2 
1.321e-03 // azi =      20 ele =         4 
1.318e-03 // azi =      20 ele =         6 
1.317e-03 // azi =      20 ele =         8 
1.318e-03 // azi =      20 ele =        10 
1.323e-03 // azi =      20 ele =        12 
1.261e-03 // azi =      20 ele =        14 
1.269e-03 // azi =      20 ele =        16 
1.278e-03 // azi =      20 ele =        18 
1.295e-03 // azi =      20 ele =        20 
1.323e-03 // azi =      20 ele =        22 
1.363e-03 // azi =      20 ele =        24 
1.414e-03 // azi =      20 ele =        26 
1.468e-03 // azi =      20 ele =        28 
1.781e-03 // azi =      20 ele =        30 
1.771e-03 // azi =      20 ele =        32 
1.783e-03 // azi =      20 ele =        34 
1.816e-03 // azi =      20 ele =        36 
1.872e-03 // azi =      20 ele =        38 
1.950e-03 // azi =      20 ele =        40 
2.050e-03 // azi =      20 ele =        42 
2.435e-03 // azi =      20 ele =        44 
2.516e-03 // azi =      20 ele =        46 
2.271e-03 // azi =      20 ele =        48 
2.223e-03 // azi =      20 ele =        50 
2.202e-03 // azi =      20 ele =        52 
2.204e-03 // azi =      20 ele =        54 
2.480e-03 // azi =      20 ele =        56 
2.259e-03 // azi =      20 ele =        58 
2.295e-03 // azi =      20 ele =        60 
2.256e-03 // azi =      20 ele =        62 
2.169e-03 // azi =      20 ele =        64 
2.081e-03 // azi =      20 ele =        66 
1.502e-03 // azi =      20 ele =        68 
1.125e-03 // azi =      20 ele =        70 
7.508e-04 // azi =      20 ele =        72 
8.224e-04 // azi =      20 ele =        74 
8.195e-04 // azi =      20 ele =        76 
7.338e-04 // azi =      20 ele =        78 
6.884e-04 // azi =      20 ele =        80 
6.647e-04 // azi =      20 ele =        82 
6.514e-04 // azi =      20 ele =        84 
6.435e-04 // azi =      20 ele =        86 
6.387e-04 // azi =      20 ele =        88 
6.357e-04 // azi =      20 ele =        90 
1.091e-03 // azi =      22 ele =         0 
1.092e-03 // azi =      22 ele =         2 
1.093e-03 // azi =      22 ele =         4 
1.095e-03 // azi =      22 ele =         6 
1.290e-03 // azi =      22 ele =         8 
1.206e-03 // azi =      22 ele =        10 
1.206e-03 // azi =      22 ele =        12 
1.210e-03 // azi =      22 ele =        14 
1.218e-03 // azi =      22 ele =        16 
1.231e-03 // azi =      22 ele =        18 
1.250e-03 // azi =      22 ele =        20 
1.274e-03 // azi =      22 ele =        22 
1.302e-03 // azi =      22 ele =        24 
1.330e-03 // azi =      22 ele =        26 
1.355e-03 // azi =      22 ele =        28 
1.652e-03 // azi =      22 ele =        30 
1.671e-03 // azi =      22 ele =        32 
1.702e-03 // azi =      22 ele =        34 
1.745e-03 // azi =      22 ele =        36 
1.797e-03 // azi =      22 ele =        38 
1.854e-03 // azi =      22 ele =        40 
1.910e-03 // azi =      22 ele =        42 
1.954e-03 // azi =      22 ele =        44 
2.153e-03 // azi =      22 ele =        46 
2.148e-03 // azi =      22 ele =        48 
2.146e-03 // azi =      22 ele =        50 
2.150e-03 // azi =      22 ele =        52 
2.160e-03 // azi =      22 ele =        54 
2.173e-03 // azi =      22 ele =        56 
2.166e-03 // azi =      22 ele =        58 
2.175e-03 // azi =      22 ele =        60 
2.165e-03 // azi =      22 ele =        62 
2.125e-03 // azi =      22 ele =        64 
1.650e-03 // azi =      22 ele =        66 
1.507e-03 // azi =      22 ele =        68 
1.122e-03 // azi =      22 ele =        70 
7.390e-04 // azi =      22 ele =        72 
7.908e-04 // azi =      22 ele =        74 
7.890e-04 // azi =      22 ele =        76 
7.248e-04 // azi =      22 ele =        78 
6.842e-04 // azi =      22 ele =        80 
6.623e-04 // azi =      22 ele =        82 
6.500e-04 // azi =      22 ele =        84 
6.427e-04 // azi =      22 ele =        86 
6.384e-04 // azi =      22 ele =        88 
6.357e-04 // azi =      22 ele =        90 
1.075e-03 // azi =      24 ele =         0 
1.074e-03 // azi =      24 ele =         2 
1.071e-03 // azi =      24 ele =         4 
9.827e-04 // azi =      24 ele =         6 
9.833e-04 // azi =      24 ele =         8 
9.823e-04 // azi =      24 ele =        10 
1.154e-03 // azi =      24 ele =        12 
1.150e-03 // azi =      24 ele =        14 
1.157e-03 // azi =      24 ele =        16 
1.176e-03 // azi =      24 ele =        18 
1.200e-03 // azi =      24 ele =        20 
1.223e-03 // azi =      24 ele =        22 
1.241e-03 // azi =      24 ele =        24 
1.250e-03 // azi =      24 ele =        26 
1.252e-03 // azi =      24 ele =        28 
1.230e-03 // azi =      24 ele =        30 
1.555e-03 // azi =      24 ele =        32 
1.609e-03 // azi =      24 ele =        34 
1.668e-03 // azi =      24 ele =        36 
1.720e-03 // azi =      24 ele =        38 
1.759e-03 // azi =      24 ele =        40 
1.779e-03 // azi =      24 ele =        42 
1.683e-03 // azi =      24 ele =        44 
1.799e-03 // azi =      24 ele =        46 
2.023e-03 // azi =      24 ele =        48 
2.066e-03 // azi =      24 ele =        50 
2.097e-03 // azi =      24 ele =        52 
2.114e-03 // azi =      24 ele =        54 
1.834e-03 // azi =      24 ele =        56 
2.074e-03 // azi =      24 ele =        58 
2.062e-03 // azi =      24 ele =        60 
2.075e-03 // azi =      24 ele =        62 
1.812e-03 // azi =      24 ele =        64 
1.739e-03 // azi =      24 ele =        66 
1.498e-03 // azi =      24 ele =        68 
9.437e-04 // azi =      24 ele =        70 
7.251e-04 // azi =      24 ele =        72 
7.617e-04 // azi =      24 ele =        74 
7.606e-04 // azi =      24 ele =        76 
7.138e-04 // azi =      24 ele =        78 
6.793e-04 // azi =      24 ele =        80 
6.596e-04 // azi =      24 ele =        82 
6.485e-04 // azi =      24 ele =        84 
6.419e-04 // azi =      24 ele =        86 
6.381e-04 // azi =      24 ele =        88 
6.357e-04 // azi =      24 ele =        90 
1.060e-03 // azi =      26 ele =         0 
9.650e-04 // azi =      26 ele =         2 
9.642e-04 // azi =      26 ele =         4 
9.620e-04 // azi =      26 ele =         6 
9.575e-04 // azi =      26 ele =         8 
9.499e-04 // azi =      26 ele =        10 
9.389e-04 // azi =      26 ele =        12 
9.286e-04 // azi =      26 ele =        14 
1.082e-03 // azi =      26 ele =        16 
1.114e-03 // azi =      26 ele =        18 
1.150e-03 // azi =      26 ele =        20 
1.176e-03 // azi =      26 ele =        22 
1.186e-03 // azi =      26 ele =        24 
1.178e-03 // azi =      26 ele =        26 
1.153e-03 // azi =      26 ele =        28 
1.120e-03 // azi =      26 ele =        30 
1.420e-03 // azi =      26 ele =        32 
1.512e-03 // azi =      26 ele =        34 
1.594e-03 // azi =      26 ele =        36 
1.650e-03 // azi =      26 ele =        38 
1.675e-03 // azi =      26 ele =        40 
1.555e-03 // azi =      26 ele =        42 
1.533e-03 // azi =      26 ele =        44 
1.635e-03 // azi =      26 ele =        46 
1.698e-03 // azi =      26 ele =        48 
1.991e-03 // azi =      26 ele =        50 
2.047e-03 // azi =      26 ele =        52 
2.072e-03 // azi =      26 ele =        54 
1.786e-03 // azi =      26 ele =        56 
1.809e-03 // azi =      26 ele =        58 
1.950e-03 // azi =      26 ele =        60 
1.991e-03 // azi =      26 ele =        62 
1.772e-03 // azi =      26 ele =        64 
1.717e-03 // azi =      26 ele =        66 
1.482e-03 // azi =      26 ele =        68 
9.436e-04 // azi =      26 ele =        70 
7.102e-04 // azi =      26 ele =        72 
7.353e-04 // azi =      26 ele =        74 
7.346e-04 // azi =      26 ele =        76 
7.017e-04 // azi =      26 ele =        78 
6.737e-04 // azi =      26 ele =        80 
6.567e-04 // azi =      26 ele =        82 
6.469e-04 // azi =      26 ele =        84 
6.412e-04 // azi =      26 ele =        86 
6.378e-04 // azi =      26 ele =        88 
6.357e-04 // azi =      26 ele =        90 
9.541e-04 // azi =      28 ele =         0 
9.523e-04 // azi =      28 ele =         2 
9.492e-04 // azi =      28 ele =         4 
9.444e-04 // azi =      28 ele =         6 
9.366e-04 // azi =      28 ele =         8 
9.244e-04 // azi =      28 ele =        10 
9.058e-04 // azi =      28 ele =        12 
8.836e-04 // azi =      28 ele =        14 
8.831e-04 // azi =      28 ele =        16 
9.027e-04 // azi =      28 ele =        18 
1.107e-03 // azi =      28 ele =        20 
1.137e-03 // azi =      28 ele =        22 
1.142e-03 // azi =      28 ele =        24 
1.121e-03 // azi =      28 ele =        26 
1.066e-03 // azi =      28 ele =        28 
1.046e-03 // azi =      28 ele =        30 
1.115e-03 // azi =      28 ele =        32 
1.425e-03 // azi =      28 ele =        34 
1.531e-03 // azi =      28 ele =        36 
1.592e-03 // azi =      28 ele =        38 
1.486e-03 // azi =      28 ele =        40 
1.468e-03 // azi =      28 ele =        42 
1.396e-03 // azi =      28 ele =        44 
1.472e-03 // azi =      28 ele =        46 
1.604e-03 // azi =      28 ele =        48 
1.929e-03 // azi =      28 ele =        50 
2.004e-03 // azi =      28 ele =        52 
1.707e-03 // azi =      28 ele =        54 
1.746e-03 // azi =      28 ele =        56 
1.761e-03 // azi =      28 ele =        58 
1.836e-03 // azi =      28 ele =        60 
1.920e-03 // azi =      28 ele =        62 
1.737e-03 // azi =      28 ele =        64 