FoamFile
{
    version     2.0;
    format      ascii;
    class       dictionary;
    location    "constant";
    object      LookupTableInjection;
}
pressure    0.75842; // pressure (bar),   11.00000 (psi)
kFactor  161.99680; // kFactor (lpm/bar^0.5),   11.20000 (gpm/psi^0.5)
radius    1.00000; // radius (m),   39.37008 (in)
nAzi   180; // azimuthal angles
nEle    46; // elevation angles
