FoamFile
{
    version     2.0;
    format      ascii;
    class       dictionary;
    location    "constant";
    object      LookupTableInjection;
}
ele
List<scalar>
 8280
(
0.000e+00 // azi =       0 ele =         0 
2.000e+00 // azi =       0 ele =         2 
4.000e+00 // azi =       0 ele =         4 
6.000e+00 // azi =       0 ele =         6 
8.000e+00 // azi =       0 ele =         8 
1.000e+01 // azi =       0 ele =        10 
1.200e+01 // azi =       0 ele =        12 
1.400e+01 // azi =       0 ele =        14 
1.600e+01 // azi =       0 ele =        16 
1.800e+01 // azi =       0 ele =        18 
2.000e+01 // azi =       0 ele =        20 
2.200e+01 // azi =       0 ele =        22 
2.400e+01 // azi =       0 ele =        24 
2.600e+01 // azi =       0 ele =        26 
2.800e+01 // azi =       0 ele =        28 
3.000e+01 // azi =       0 ele =        30 
3.200e+01 // azi =       0 ele =        32 
3.400e+01 // azi =       0 ele =        34 
3.600e+01 // azi =       0 ele =        36 
3.800e+01 // azi =       0 ele =        38 
4.000e+01 // azi =       0 ele =        40 
4.200e+01 // azi =       0 ele =        42 
4.400e+01 // azi =       0 ele =        44 
4.600e+01 // azi =       0 ele =        46 
4.800e+01 // azi =       0 ele =        48 
5.000e+01 // azi =       0 ele =        50 
5.200e+01 // azi =       0 ele =        52 
5.400e+01 // azi =       0 ele =        54 
5.600e+01 // azi =       0 ele =        56 
5.800e+01 // azi =       0 ele =        58 
6.000e+01 // azi =       0 ele =        60 
6.200e+01 // azi =       0 ele =        62 
6.400e+01 // azi =       0 ele =        64 
6.600e+01 // azi =       0 ele =        66 
6.800e+01 // azi =       0 ele =        68 
7.000e+01 // azi =       0 ele =        70 
7.200e+01 // azi =       0 ele =        72 
7.400e+01 // azi =       0 ele =        74 
7.600e+01 // azi =       0 ele =        76 
7.800e+01 // azi =       0 ele =        78 
8.000e+01 // azi =       0 ele =        80 
8.200e+01 // azi =       0 ele =        82 
8.400e+01 // azi =       0 ele =        84 
8.600e+01 // azi =       0 ele =        86 
8.800e+01 // azi =       0 ele =        88 
9.000e+01 // azi =       0 ele =        90 
0.000e+00 // azi =       2 ele =         0 
2.000e+00 // azi =       2 ele =         2 
4.000e+00 // azi =       2 ele =         4 
6.000e+00 // azi =       2 ele =         6 
8.000e+00 // azi =       2 ele =         8 
1.000e+01 // azi =       2 ele =        10 
1.200e+01 // azi =       2 ele =        12 
1.400e+01 // azi =       2 ele =        14 
1.600e+01 // azi =       2 ele =        16 
1.800e+01 // azi =       2 ele =        18 
2.000e+01 // azi =       2 ele =        20 
2.200e+01 // azi =       2 ele =        22 
2.400e+01 // azi =       2 ele =        24 
2.600e+01 // azi =       2 ele =        26 
2.800e+01 // azi =       2 ele =        28 
3.000e+01 // azi =       2 ele =        30 
3.200e+01 // azi =       2 ele =        32 
3.400e+01 // azi =       2 ele =        34 
3.600e+01 // azi =       2 ele =        36 
3.800e+01 // azi =       2 ele =        38 
4.000e+01 // azi =       2 ele =        40 
4.200e+01 // azi =       2 ele =        42 
4.400e+01 // azi =       2 ele =        44 
4.600e+01 // azi =       2 ele =        46 
4.800e+01 // azi =       2 ele =        48 
5.000e+01 // azi =       2 ele =        50 
5.200e+01 // azi =       2 ele =        52 
5.400e+01 // azi =       2 ele =        54 
5.600e+01 // azi =       2 ele =        56 
5.800e+01 // azi =       2 ele =        58 
6.000e+01 // azi =       2 ele =        60 
6.200e+01 // azi =       2 ele =        62 
6.400e+01 // azi =       2 ele =        64 
6.600e+01 // azi =       2 ele =        66 
6.800e+01 // azi =       2 ele =        68 
7.000e+01 // azi =       2 ele =        70 
7.200e+01 // azi =       2 ele =        72 
7.400e+01 // azi =       2 ele =        74 
7.600e+01 // azi =       2 ele =        76 
7.800e+01 // azi =       2 ele =        78 
8.000e+01 // azi =       2 ele =        80 
8.200e+01 // azi =       2 ele =        82 
8.400e+01 // azi =       2 ele =        84 
8.600e+01 // azi =       2 ele =        86 
8.800e+01 // azi =       2 ele =        88 
9.000e+01 // azi =       2 ele =        90 
0.000e+00 // azi =       4 ele =         0 
2.000e+00 // azi =       4 ele =         2 
4.000e+00 // azi =       4 ele =         4 
6.000e+00 // azi =       4 ele =         6 
8.000e+00 // azi =       4 ele =         8 
1.000e+01 // azi =       4 ele =        10 
1.200e+01 // azi =       4 ele =        12 
1.400e+01 // azi =       4 ele =        14 
1.600e+01 // azi =       4 ele =        16 
1.800e+01 // azi =       4 ele =        18 
2.000e+01 // azi =       4 ele =        20 
2.200e+01 // azi =       4 ele =        22 
2.400e+01 // azi =       4 ele =        24 
2.600e+01 // azi =       4 ele =        26 
2.800e+01 // azi =       4 ele =        28 
3.000e+01 // azi =       4 ele =        30 
3.200e+01 // azi =       4 ele =        32 
3.400e+01 // azi =       4 ele =        34 
3.600e+01 // azi =       4 ele =        36 
3.800e+01 // azi =       4 ele =        38 
4.000e+01 // azi =       4 ele =        40 
4.200e+01 // azi =       4 ele =        42 
4.400e+01 // azi =       4 ele =        44 
4.600e+01 // azi =       4 ele =        46 
4.800e+01 // azi =       4 ele =        48 
5.000e+01 // azi =       4 ele =        50 
5.200e+01 // azi =       4 ele =        52 
5.400e+01 // azi =       4 ele =        54 
5.600e+01 // azi =       4 ele =        56 
5.800e+01 // azi =       4 ele =        58 
6.000e+01 // azi =       4 ele =        60 
6.200e+01 // azi =       4 ele =        62 
6.400e+01 // azi =       4 ele =        64 
6.600e+01 // azi =       4 ele =        66 
6.800e+01 // azi =       4 ele =        68 
7.000e+01 // azi =       4 ele =        70 
7.200e+01 // azi =       4 ele =        72 
7.400e+01 // azi =       4 ele =        74 
7.600e+01 // azi =       4 ele =        76 
7.800e+01 // azi =       4 ele =        78 
8.000e+01 // azi =       4 ele =        80 
8.200e+01 // azi =       4 ele =        82 
8.400e+01 // azi =       4 ele =        84 
8.600e+01 // azi =       4 ele =        86 
8.800e+01 // azi =       4 ele =        88 
9.000e+01 // azi =       4 ele =        90 
0.000e+00 // azi =       6 ele =         0 
2.000e+00 // azi =       6 ele =         2 
4.000e+00 // azi =       6 ele =         4 
6.000e+00 // azi =       6 ele =         6 
8.000e+00 // azi =       6 ele =         8 
1.000e+01 // azi =       6 ele =        10 
1.200e+01 // azi =       6 ele =        12 
1.400e+01 // azi =       6 ele =        14 
1.600e+01 // azi =       6 ele =        16 
1.800e+01 // azi =       6 ele =        18 
2.000e+01 // azi =       6 ele =        20 
2.200e+01 // azi =       6 ele =        22 
2.400e+01 // azi =       6 ele =        24 
2.600e+01 // azi =       6 ele =        26 
2.800e+01 // azi =       6 ele =        28 
3.000e+01 // azi =       6 ele =        30 
3.200e+01 // azi =       6 ele =        32 
3.400e+01 // azi =       6 ele =        34 
3.600e+01 // azi =       6 ele =        36 
3.800e+01 // azi =       6 ele =        38 
4.000e+01 // azi =       6 ele =        40 
4.200e+01 // azi =       6 ele =        42 
4.400e+01 // azi =       6 ele =        44 
4.600e+01 // azi =       6 ele =        46 
4.800e+01 // azi =       6 ele =        48 
5.000e+01 // azi =       6 ele =        50 
5.200e+01 // azi =       6 ele =        52 
5.400e+01 // azi =       6 ele =        54 
5.600e+01 // azi =       6 ele =        56 
5.800e+01 // azi =       6 ele =        58 
6.000e+01 // azi =       6 ele =        60 
6.200e+01 // azi =       6 ele =        62 
6.400e+01 // azi =       6 ele =        64 
6.600e+01 // azi =       6 ele =        66 
6.800e+01 // azi =       6 ele =        68 
7.000e+01 // azi =       6 ele =        70 
7.200e+01 // azi =       6 ele =        72 
7.400e+01 // azi =       6 ele =        74 
7.600e+01 // azi =       6 ele =        76 
7.800e+01 // azi =       6 ele =        78 
8.000e+01 // azi =       6 ele =        80 
8.200e+01 // azi =       6 ele =        82 
8.400e+01 // azi =       6 ele =        84 
8.600e+01 // azi =       6 ele =        86 
8.800e+01 // azi =       6 ele =        88 
9.000e+01 // azi =       6 ele =        90 
0.000e+00 // azi =       8 ele =         0 
2.000e+00 // azi =       8 ele =         2 
4.000e+00 // azi =       8 ele =         4 
6.000e+00 // azi =       8 ele =         6 
8.000e+00 // azi =       8 ele =         8 
1.000e+01 // azi =       8 ele =        10 
1.200e+01 // azi =       8 ele =        12 
1.400e+01 // azi =       8 ele =        14 
1.600e+01 // azi =       8 ele =        16 
1.800e+01 // azi =       8 ele =        18 
2.000e+01 // azi =       8 ele =        20 
2.200e+01 // azi =       8 ele =        22 
2.400e+01 // azi =       8 ele =        24 
2.600e+01 // azi =       8 ele =        26 
2.800e+01 // azi =       8 ele =        28 
3.000e+01 // azi =       8 ele =        30 
3.200e+01 // azi =       8 ele =        32 
3.400e+01 // azi =       8 ele =        34 
3.600e+01 // azi =       8 ele =        36 
3.800e+01 // azi =       8 ele =        38 
4.000e+01 // azi =       8 ele =        40 
4.200e+01 // azi =       8 ele =        42 
4.400e+01 // azi =       8 ele =        44 
4.600e+01 // azi =       8 ele =        46 
4.800e+01 // azi =       8 ele =        48 
5.000e+01 // azi =       8 ele =        50 
5.200e+01 // azi =       8 ele =        52 
5.400e+01 // azi =       8 ele =        54 
5.600e+01 // azi =       8 ele =        56 
5.800e+01 // azi =       8 ele =        58 
6.000e+01 // azi =       8 ele =        60 
6.200e+01 // azi =       8 ele =        62 
6.400e+01 // azi =       8 ele =        64 
6.600e+01 // azi =       8 ele =        66 
6.800e+01 // azi =       8 ele =        68 
7.000e+01 // azi =       8 ele =        70 
7.200e+01 // azi =       8 ele =        72 
7.400e+01 // azi =       8 ele =        74 
7.600e+01 // azi =       8 ele =        76 
7.800e+01 // azi =       8 ele =        78 
8.000e+01 // azi =       8 ele =        80 
8.200e+01 // azi =       8 ele =        82 
8.400e+01 // azi =       8 ele =        84 
8.600e+01 // azi =       8 ele =        86 
8.800e+01 // azi =       8 ele =        88 
9.000e+01 // azi =       8 ele =        90 
0.000e+00 // azi =      10 ele =         0 
2.000e+00 // azi =      10 ele =         2 
4.000e+00 // azi =      10 ele =         4 
6.000e+00 // azi =      10 ele =         6 
8.000e+00 // azi =      10 ele =         8 
1.000e+01 // azi =      10 ele =        10 
1.200e+01 // azi =      10 ele =        12 
1.400e+01 // azi =      10 ele =        14 
1.600e+01 // azi =      10 ele =        16 
1.800e+01 // azi =      10 ele =        18 
2.000e+01 // azi =      10 ele =        20 
2.200e+01 // azi =      10 ele =        22 
2.400e+01 // azi =      10 ele =        24 
2.600e+01 // azi =      10 ele =        26 
2.800e+01 // azi =      10 ele =        28 
3.000e+01 // azi =      10 ele =        30 
3.200e+01 // azi =      10 ele =        32 
3.400e+01 // azi =      10 ele =        34 
3.600e+01 // azi =      10 ele =        36 
3.800e+01 // azi =      10 ele =        38 
4.000e+01 // azi =      10 ele =        40 
4.200e+01 // azi =      10 ele =        42 
4.400e+01 // azi =      10 ele =        44 
4.600e+01 // azi =      10 ele =        46 
4.800e+01 // azi =      10 ele =        48 
5.000e+01 // azi =      10 ele =        50 
5.200e+01 // azi =      10 ele =        52 
5.400e+01 // azi =      10 ele =        54 
5.600e+01 // azi =      10 ele =        56 
5.800e+01 // azi =      10 ele =        58 
6.000e+01 // azi =      10 ele =        60 
6.200e+01 // azi =      10 ele =        62 
6.400e+01 // azi =      10 ele =        64 
6.600e+01 // azi =      10 ele =        66 
6.800e+01 // azi =      10 ele =        68 
7.000e+01 // azi =      10 ele =        70 
7.200e+01 // azi =      10 ele =        72 
7.400e+01 // azi =      10 ele =        74 
7.600e+01 // azi =      10 ele =        76 
7.800e+01 // azi =      10 ele =        78 
8.000e+01 // azi =      10 ele =        80 
8.200e+01 // azi =      10 ele =        82 
8.400e+01 // azi =      10 ele =        84 
8.600e+01 // azi =      10 ele =        86 
8.800e+01 // azi =      10 ele =        88 
9.000e+01 // azi =      10 ele =        90 
0.000e+00 // azi =      12 ele =         0 
2.000e+00 // azi =      12 ele =         2 
4.000e+00 // azi =      12 ele =         4 
6.000e+00 // azi =      12 ele =         6 
8.000e+00 // azi =      12 ele =         8 
1.000e+01 // azi =      12 ele =        10 
1.200e+01 // azi =      12 ele =        12 
1.400e+01 // azi =      12 ele =        14 
1.600e+01 // azi =      12 ele =        16 
1.800e+01 // azi =      12 ele =        18 
2.000e+01 // azi =      12 ele =        20 
2.200e+01 // azi =      12 ele =        22 
2.400e+01 // azi =      12 ele =        24 
2.600e+01 // azi =      12 ele =        26 
2.800e+01 // azi =      12 ele =        28 
3.000e+01 // azi =      12 ele =        30 
3.200e+01 // azi =      12 ele =        32 
3.400e+01 // azi =      12 ele =        34 
3.600e+01 // azi =      12 ele =        36 
3.800e+01 // azi =      12 ele =        38 
4.000e+01 // azi =      12 ele =        40 
4.200e+01 // azi =      12 ele =        42 
4.400e+01 // azi =      12 ele =        44 
4.600e+01 // azi =      12 ele =        46 
4.800e+01 // azi =      12 ele =        48 
5.000e+01 // azi =      12 ele =        50 
5.200e+01 // azi =      12 ele =        52 
5.400e+01 // azi =      12 ele =        54 
5.600e+01 // azi =      12 ele =        56 
5.800e+01 // azi =      12 ele =        58 
6.000e+01 // azi =      12 ele =        60 
6.200e+01 // azi =      12 ele =        62 
6.400e+01 // azi =      12 ele =        64 
6.600e+01 // azi =      12 ele =        66 
6.800e+01 // azi =      12 ele =        68 
7.000e+01 // azi =      12 ele =        70 
7.200e+01 // azi =      12 ele =        72 
7.400e+01 // azi =      12 ele =        74 
7.600e+01 // azi =      12 ele =        76 
7.800e+01 // azi =      12 ele =        78 
8.000e+01 // azi =      12 ele =        80 
8.200e+01 // azi =      12 ele =        82 
8.400e+01 // azi =      12 ele =        84 
8.600e+01 // azi =      12 ele =        86 
8.800e+01 // azi =      12 ele =        88 
9.000e+01 // azi =      12 ele =        90 
0.000e+00 // azi =      14 ele =         0 
2.000e+00 // azi =      14 ele =         2 
4.000e+00 // azi =      14 ele =         4 
6.000e+00 // azi =      14 ele =         6 
8.000e+00 // azi =      14 ele =         8 
1.000e+01 // azi =      14 ele =        10 
1.200e+01 // azi =      14 ele =        12 
1.400e+01 // azi =      14 ele =        14 
1.600e+01 // azi =      14 ele =        16 
1.800e+01 // azi =      14 ele =        18 
2.000e+01 // azi =      14 ele =        20 
2.200e+01 // azi =      14 ele =        22 
2.400e+01 // azi =      14 ele =        24 
2.600e+01 // azi =      14 ele =        26 
2.800e+01 // azi =      14 ele =        28 
3.000e+01 // azi =      14 ele =        30 
3.200e+01 // azi =      14 ele =        32 
3.400e+01 // azi =      14 ele =        34 
3.600e+01 // azi =      14 ele =        36 
3.800e+01 // azi =      14 ele =        38 
4.000e+01 // azi =      14 ele =        40 
4.200e+01 // azi =      14 ele =        42 
4.400e+01 // azi =      14 ele =        44 
4.600e+01 // azi =      14 ele =        46 
4.800e+01 // azi =      14 ele =        48 
5.000e+01 // azi =      14 ele =        50 
5.200e+01 // azi =      14 ele =        52 
5.400e+01 // azi =      14 ele =        54 
5.600e+01 // azi =      14 ele =        56 
5.800e+01 // azi =      14 ele =        58 
6.000e+01 // azi =      14 ele =        60 
6.200e+01 // azi =      14 ele =        62 
6.400e+01 // azi =      14 ele =        64 
6.600e+01 // azi =      14 ele =        66 
6.800e+01 // azi =      14 ele =        68 
7.000e+01 // azi =      14 ele =        70 
7.200e+01 // azi =      14 ele =        72 
7.400e+01 // azi =      14 ele =        74 
7.600e+01 // azi =      14 ele =        76 
7.800e+01 // azi =      14 ele =        78 
8.000e+01 // azi =      14 ele =        80 
8.200e+01 // azi =      14 ele =        82 
8.400e+01 // azi =      14 ele =        84 
8.600e+01 // azi =      14 ele =        86 
8.800e+01 // azi =      14 ele =        88 
9.000e+01 // azi =      14 ele =        90 
0.000e+00 // azi =      16 ele =         0 
2.000e+00 // azi =      16 ele =         2 
4.000e+00 // azi =      16 ele =         4 
6.000e+00 // azi =      16 ele =         6 
8.000e+00 // azi =      16 ele =         8 
1.000e+01 // azi =      16 ele =        10 
1.200e+01 // azi =      16 ele =        12 
1.400e+01 // azi =      16 ele =        14 
1.600e+01 // azi =      16 ele =        16 
1.800e+01 // azi =      16 ele =        18 
2.000e+01 // azi =      16 ele =        20 
2.200e+01 // azi =      16 ele =        22 
2.400e+01 // azi =      16 ele =        24 
2.600e+01 // azi =      16 ele =        26 
2.800e+01 // azi =      16 ele =        28 
3.000e+01 // azi =      16 ele =        30 
3.200e+01 // azi =      16 ele =        32 
3.400e+01 // azi =      16 ele =        34 
3.600e+01 // azi =      16 ele =        36 
3.800e+01 // azi =      16 ele =        38 
4.000e+01 // azi =      16 ele =        40 
4.200e+01 // azi =      16 ele =        42 
4.400e+01 // azi =      16 ele =        44 
4.600e+01 // azi =      16 ele =        46 
4.800e+01 // azi =      16 ele =        48 
5.000e+01 // azi =      16 ele =        50 
5.200e+01 // azi =      16 ele =        52 
5.400e+01 // azi =      16 ele =        54 
5.600e+01 // azi =      16 ele =        56 
5.800e+01 // azi =      16 ele =        58 
6.000e+01 // azi =      16 ele =        60 
6.200e+01 // azi =      16 ele =        62 
6.400e+01 // azi =      16 ele =        64 
6.600e+01 // azi =      16 ele =        66 
6.800e+01 // azi =      16 ele =        68 
7.000e+01 // azi =      16 ele =        70 
7.200e+01 // azi =      16 ele =        72 
7.400e+01 // azi =      16 ele =        74 
7.600e+01 // azi =      16 ele =        76 
7.800e+01 // azi =      16 ele =        78 
8.000e+01 // azi =      16 ele =        80 
8.200e+01 // azi =      16 ele =        82 
8.400e+01 // azi =      16 ele =        84 
8.600e+01 // azi =      16 ele =        86 
8.800e+01 // azi =      16 ele =        88 
9.000e+01 // azi =      16 ele =        90 
0.000e+00 // azi =      18 ele =         0 
2.000e+00 // azi =      18 ele =         2 
4.000e+00 // azi =      18 ele =         4 
6.000e+00 // azi =      18 ele =         6 
8.000e+00 // azi =      18 ele =         8 
1.000e+01 // azi =      18 ele =        10 
1.200e+01 // azi =      18 ele =        12 
1.400e+01 // azi =      18 ele =        14 
1.600e+01 // azi =      18 ele =        16 
1.800e+01 // azi =      18 ele =        18 
2.000e+01 // azi =      18 ele =        20 
2.200e+01 // azi =      18 ele =        22 
2.400e+01 // azi =      18 ele =        24 
2.600e+01 // azi =      18 ele =        26 
2.800e+01 // azi =      18 ele =        28 
3.000e+01 // azi =      18 ele =        30 
3.200e+01 // azi =      18 ele =        32 
3.400e+01 // azi =      18 ele =        34 
3.600e+01 // azi =      18 ele =        36 
3.800e+01 // azi =      18 ele =        38 
4.000e+01 // azi =      18 ele =        40 
4.200e+01 // azi =      18 ele =        42 
4.400e+01 // azi =      18 ele =        44 
4.600e+01 // azi =      18 ele =        46 
4.800e+01 // azi =      18 ele =        48 
5.000e+01 // azi =      18 ele =        50 
5.200e+01 // azi =      18 ele =        52 
5.400e+01 // azi =      18 ele =        54 
5.600e+01 // azi =      18 ele =        56 
5.800e+01 // azi =      18 ele =        58 
6.000e+01 // azi =      18 ele =        60 
6.200e+01 // azi =      18 ele =        62 
6.400e+01 // azi =      18 ele =        64 
6.600e+01 // azi =      18 ele =        66 
6.800e+01 // azi =      18 ele =        68 
7.000e+01 // azi =      18 ele =        70 
7.200e+01 // azi =      18 ele =        72 
7.400e+01 // azi =      18 ele =        74 
7.600e+01 // azi =      18 ele =        76 
7.800e+01 // azi =      18 ele =        78 
8.000e+01 // azi =      18 ele =        80 
8.200e+01 // azi =      18 ele =        82 
8.400e+01 // azi =      18 ele =        84 
8.600e+01 // azi =      18 ele =        86 
8.800e+01 // azi =      18 ele =        88 
9.000e+01 // azi =      18 ele =        90 
0.000e+00 // azi =      20 ele =         0 
2.000e+00 // azi =      20 ele =         2 
4.000e+00 // azi =      20 ele =         4 
6.000e+00 // azi =      20 ele =         6 
8.000e+00 // azi =      20 ele =         8 
1.000e+01 // azi =      20 ele =        10 
1.200e+01 // azi =      20 ele =        12 
1.400e+01 // azi =      20 ele =        14 
1.600e+01 // azi =      20 ele =        16 
1.800e+01 // azi =      20 ele =        18 
2.000e+01 // azi =      20 ele =        20 
2.200e+01 // azi =      20 ele =        22 
2.400e+01 // azi =      20 ele =        24 
2.600e+01 // azi =      20 ele =        26 
2.800e+01 // azi =      20 ele =        28 
3.000e+01 // azi =      20 ele =        30 
3.200e+01 // azi =      20 ele =        32 
3.400e+01 // azi =      20 ele =        34 
3.600e+01 // azi =      20 ele =        36 
3.800e+01 // azi =      20 ele =        38 
4.000e+01 // azi =      20 ele =        40 
4.200e+01 // azi =      20 ele =        42 
4.400e+01 // azi =      20 ele =        44 
4.600e+01 // azi =      20 ele =        46 
4.800e+01 // azi =      20 ele =        48 
5.000e+01 // azi =      20 ele =        50 
5.200e+01 // azi =      20 ele =        52 
5.400e+01 // azi =      20 ele =        54 
5.600e+01 // azi =      20 ele =        56 
5.800e+01 // azi =      20 ele =        58 
6.000e+01 // azi =      20 ele =        60 
6.200e+01 // azi =      20 ele =        62 
6.400e+01 // azi =      20 ele =        64 
6.600e+01 // azi =      20 ele =        66 
6.800e+01 // azi =      20 ele =        68 
7.000e+01 // azi =      20 ele =        70 
7.200e+01 // azi =      20 ele =        72 
7.400e+01 // azi =      20 ele =        74 
7.600e+01 // azi =      20 ele =        76 
7.800e+01 // azi =      20 ele =        78 
8.000e+01 // azi =      20 ele =        80 
8.200e+01 // azi =      20 ele =        82 
8.400e+01 // azi =      20 ele =        84 
8.600e+01 // azi =      20 ele =        86 
8.800e+01 // azi =      20 ele =        88 
9.000e+01 // azi =      20 ele =        90 
0.000e+00 // azi =      22 ele =         0 
2.000e+00 // azi =      22 ele =         2 
4.000e+00 // azi =      22 ele =         4 
6.000e+00 // azi =      22 ele =         6 
8.000e+00 // azi =      22 ele =         8 
1.000e+01 // azi =      22 ele =        10 
1.200e+01 // azi =      22 ele =        12 
1.400e+01 // azi =      22 ele =        14 
1.600e+01 // azi =      22 ele =        16 
1.800e+01 // azi =      22 ele =        18 
2.000e+01 // azi =      22 ele =        20 
2.200e+01 // azi =      22 ele =        22 
2.400e+01 // azi =      22 ele =        24 
2.600e+01 // azi =      22 ele =        26 
2.800e+01 // azi =      22 ele =        28 
3.000e+01 // azi =      22 ele =        30 
3.200e+01 // azi =      22 ele =        32 
3.400e+01 // azi =      22 ele =        34 
3.600e+01 // azi =      22 ele =        36 
3.800e+01 // azi =      22 ele =        38 
4.000e+01 // azi =      22 ele =        40 
4.200e+01 // azi =      22 ele =        42 
4.400e+01 // azi =      22 ele =        44 
4.600e+01 // azi =      22 ele =        46 
4.800e+01 // azi =      22 ele =        48 
5.000e+01 // azi =      22 ele =        50 
5.200e+01 // azi =      22 ele =        52 
5.400e+01 // azi =      22 ele =        54 
5.600e+01 // azi =      22 ele =        56 
5.800e+01 // azi =      22 ele =        58 
6.000e+01 // azi =      22 ele =        60 
6.200e+01 // azi =      22 ele =        62 
6.400e+01 // azi =      22 ele =        64 
6.600e+01 // azi =      22 ele =        66 
6.800e+01 // azi =      22 ele =        68 
7.000e+01 // azi =      22 ele =        70 
7.200e+01 // azi =      22 ele =        72 
7.400e+01 // azi =      22 ele =        74 
7.600e+01 // azi =      22 ele =        76 
7.800e+01 // azi =      22 ele =        78 
8.000e+01 // azi =      22 ele =        80 
8.200e+01 // azi =      22 ele =        82 
8.400e+01 // azi =      22 ele =        84 
8.600e+01 // azi =      22 ele =        86 
8.800e+01 // azi =      22 ele =        88 
9.000e+01 // azi =      22 ele =        90 
0.000e+00 // azi =      24 ele =         0 
2.000e+00 // azi =      24 ele =         2 
4.000e+00 // azi =      24 ele =         4 
6.000e+00 // azi =      24 ele =         6 
8.000e+00 // azi =      24 ele =         8 
1.000e+01 // azi =      24 ele =        10 
1.200e+01 // azi =      24 ele =        12 
1.400e+01 // azi =      24 ele =        14 
1.600e+01 // azi =      24 ele =        16 
1.800e+01 // azi =      24 ele =        18 
2.000e+01 // azi =      24 ele =        20 
2.200e+01 // azi =      24 ele =        22 
2.400e+01 // azi =      24 ele =        24 
2.600e+01 // azi =      24 ele =        26 
2.800e+01 // azi =      24 ele =        28 
3.000e+01 // azi =      24 ele =        30 
3.200e+01 // azi =      24 ele =        32 
3.400e+01 // azi =      24 ele =        34 
3.600e+01 // azi =      24 ele =        36 
3.800e+01 // azi =      24 ele =        38 
4.000e+01 // azi =      24 ele =        40 
4.200e+01 // azi =      24 ele =        42 
4.400e+01 // azi =      24 ele =        44 
4.600e+01 // azi =      24 ele =        46 
4.800e+01 // azi =      24 ele =        48 
5.000e+01 // azi =      24 ele =        50 
5.200e+01 // azi =      24 ele =        52 
5.400e+01 // azi =      24 ele =        54 
5.600e+01 // azi =      24 ele =        56 
5.800e+01 // azi =      24 ele =        58 
6.000e+01 // azi =      24 ele =        60 
6.200e+01 // azi =      24 ele =        62 
6.400e+01 // azi =      24 ele =        64 
6.600e+01 // azi =      24 ele =        66 
6.800e+01 // azi =      24 ele =        68 
7.000e+01 // azi =      24 ele =        70 
7.200e+01 // azi =      24 ele =        72 
7.400e+01 // azi =      24 ele =        74 
7.600e+01 // azi =      24 ele =        76 
7.800e+01 // azi =      24 ele =        78 
8.000e+01 // azi =      24 ele =        80 
8.200e+01 // azi =      24 ele =        82 
8.400e+01 // azi =      24 ele =        84 
8.600e+01 // azi =      24 ele =        86 
8.800e+01 // azi =      24 ele =        88 
9.000e+01 // azi =      24 ele =        90 
0.000e+00 // azi =      26 ele =         0 
2.000e+00 // azi =      26 ele =         2 
4.000e+00 // azi =      26 ele =         4 
6.000e+00 // azi =      26 ele =         6 
8.000e+00 // azi =      26 ele =         8 
1.000e+01 // azi =      26 ele =        10 
1.200e+01 // azi =      26 ele =        12 
1.400e+01 // azi =      26 ele =        14 
1.600e+01 // azi =      26 ele =        16 
1.800e+01 // azi =      26 ele =        18 
2.000e+01 // azi =      26 ele =        20 
2.200e+01 // azi =      26 ele =        22 
2.400e+01 // azi =      26 ele =        24 
2.600e+01 // azi =      26 ele =        26 
2.800e+01 // azi =      26 ele =        28 
3.000e+01 // azi =      26 ele =        30 
3.200e+01 // azi =      26 ele =        32 
3.400e+01 // azi =      26 ele =        34 
3.600e+01 // azi =      26 ele =        36 
3.800e+01 // azi =      26 ele =        38 
4.000e+01 // azi =      26 ele =        40 
4.200e+01 // azi =      26 ele =        42 
4.400e+01 // azi =      26 ele =        44 
4.600e+01 // azi =      26 ele =        46 
4.800e+01 // azi =      26 ele =        48 
5.000e+01 // azi =      26 ele =        50 
5.200e+01 // azi =      26 ele =        52 
5.400e+01 // azi =      26 ele =        54 
5.600e+01 // azi =      26 ele =        56 
5.800e+01 // azi =      26 ele =        58 
6.000e+01 // azi =      26 ele =        60 
6.200e+01 // azi =      26 ele =        62 
6.400e+01 // azi =      26 ele =        64 
6.600e+01 // azi =      26 ele =        66 
6.800e+01 // azi =      26 ele =        68 
7.000e+01 // azi =      26 ele =        70 
7.200e+01 // azi =      26 ele =        72 
7.400e+01 // azi =      26 ele =        74 
7.600e+01 // azi =      26 ele =        76 
7.800e+01 // azi =      26 ele =        78 
8.000e+01 // azi =      26 ele =        80 
8.200e+01 // azi =      26 ele =        82 
8.400e+01 // azi =      26 ele =        84 
8.600e+01 // azi =      26 ele =        86 
8.800e+01 // azi =      26 ele =        88 
9.000e+01 // azi =      26 ele =        90 
0.000e+00 // azi =      28 ele =         0 
2.000e+00 // azi =      28 ele =         2 
4.000e+00 // azi =      28 ele =         4 
6.000e+00 // azi =      28 ele =         6 
8.000e+00 // azi =      28 ele =         8 
1.000e+01 // azi =      28 ele =        10 
1.200e+01 // azi =      28 ele =        12 
1.400e+01 // azi =      28 ele =        14 
1.600e+01 // azi =      28 ele =        16 
1.800e+01 // azi =      28 ele =        18 
2.000e+01 // azi =      28 ele =        20 
2.200e+01 // azi =      28 ele =        22 
2.400e+01 // azi =      28 ele =        24 
2.600e+01 // azi =      28 ele =        26 
2.800e+01 // azi =      28 ele =        28 
3.000e+01 // azi =      28 ele =        30 
3.200e+01 // azi =      28 ele =        32 
3.400e+01 // azi =      28 ele =        34 
3.600e+01 // azi =      28 ele =        36 
3.800e+01 // azi =      28 ele =        38 
4.000e+01 // azi =      28 ele =        40 
4.200e+01 // azi =      28 ele =        42 
4.400e+01 // azi =      28 ele =        44 
4.600e+01 // azi =      28 ele =        46 
4.800e+01 // azi =      28 ele =        48 
5.000e+01 // azi =      28 ele =        50 
5.200e+01 // azi =      28 ele =        52 
5.400e+01 // azi =      28 ele =        54 
5.600e+01 // azi =      28 ele =        56 
5.800e+01 // azi =      28 ele =        58 
6.000e+01 // azi =      28 ele =        60 
6.200e+01 // azi =      28 ele =        62 
6.400e+01 // azi =      28 ele =        64 