FoamFile
{
    version     2.0;
    format      ascii;
    class       dictionary;
    location    "constant";
    object      LookupTableInjection;
}
avgFlux
List<scalar>
 8280
(
2.362e-01 // azi =       0 ele =         0 
2.855e-01 // azi =       0 ele =         2 
2.787e-01 // azi =       0 ele =         4 
2.699e-01 // azi =       0 ele =         6 
2.579e-01 // azi =       0 ele =         8 
2.400e-01 // azi =       0 ele =        10 
2.104e-01 // azi =       0 ele =        12 
1.543e-01 // azi =       0 ele =        14 
1.599e-01 // azi =       0 ele =        16 
2.446e-01 // azi =       0 ele =        18 
3.128e-01 // azi =       0 ele =        20 
3.767e-01 // azi =       0 ele =        22 
4.447e-01 // azi =       0 ele =        24 
5.262e-01 // azi =       0 ele =        26 
6.887e-01 // azi =       0 ele =        28 
8.100e-01 // azi =       0 ele =        30 
7.059e-01 // azi =       0 ele =        32 
7.389e-01 // azi =       0 ele =        34 
7.323e-01 // azi =       0 ele =        36 
7.358e-01 // azi =       0 ele =        38 
7.471e-01 // azi =       0 ele =        40 
7.666e-01 // azi =       0 ele =        42 
7.997e-01 // azi =       0 ele =        44 
7.972e-01 // azi =       0 ele =        46 
7.662e-01 // azi =       0 ele =        48 
7.402e-01 // azi =       0 ele =        50 
7.157e-01 // azi =       0 ele =        52 
6.877e-01 // azi =       0 ele =        54 
6.498e-01 // azi =       0 ele =        56 
5.821e-01 // azi =       0 ele =        58 
4.609e-01 // azi =       0 ele =        60 
4.598e-01 // azi =       0 ele =        62 
4.356e-01 // azi =       0 ele =        64 
3.945e-01 // azi =       0 ele =        66 
3.423e-01 // azi =       0 ele =        68 
2.830e-01 // azi =       0 ele =        70 
1.258e-01 // azi =       0 ele =        72 
9.518e-02 // azi =       0 ele =        74 
7.496e-02 // azi =       0 ele =        76 
7.733e-02 // azi =       0 ele =        78 
7.474e-02 // azi =       0 ele =        80 
7.148e-02 // azi =       0 ele =        82 
6.879e-02 // azi =       0 ele =        84 
6.683e-02 // azi =       0 ele =        86 
6.547e-02 // azi =       0 ele =        88 
6.519e-02 // azi =       0 ele =        90 
2.330e-01 // azi =       2 ele =         0 
2.302e-01 // azi =       2 ele =         2 
2.766e-01 // azi =       2 ele =         4 
2.684e-01 // azi =       2 ele =         6 
2.577e-01 // azi =       2 ele =         8 
2.428e-01 // azi =       2 ele =        10 
2.214e-01 // azi =       2 ele =        12 
1.959e-01 // azi =       2 ele =        14 
2.049e-01 // azi =       2 ele =        16 
2.571e-01 // azi =       2 ele =        18 
3.145e-01 // azi =       2 ele =        20 
3.724e-01 // azi =       2 ele =        22 
4.348e-01 // azi =       2 ele =        24 
5.072e-01 // azi =       2 ele =        26 
6.589e-01 // azi =       2 ele =        28 
7.045e-01 // azi =       2 ele =        30 
7.443e-01 // azi =       2 ele =        32 
7.287e-01 // azi =       2 ele =        34 
7.247e-01 // azi =       2 ele =        36 
7.298e-01 // azi =       2 ele =        38 
7.420e-01 // azi =       2 ele =        40 
7.606e-01 // azi =       2 ele =        42 
7.865e-01 // azi =       2 ele =        44 
7.878e-01 // azi =       2 ele =        46 
7.640e-01 // azi =       2 ele =        48 
7.413e-01 // azi =       2 ele =        50 
7.188e-01 // azi =       2 ele =        52 
6.931e-01 // azi =       2 ele =        54 
6.587e-01 // azi =       2 ele =        56 
5.987e-01 // azi =       2 ele =        58 
5.019e-01 // azi =       2 ele =        60 
5.252e-01 // azi =       2 ele =        62 
4.448e-01 // azi =       2 ele =        64 
4.011e-01 // azi =       2 ele =        66 
3.457e-01 // azi =       2 ele =        68 
2.841e-01 // azi =       2 ele =        70 
1.257e-01 // azi =       2 ele =        72 
9.815e-02 // azi =       2 ele =        74 
7.661e-02 // azi =       2 ele =        76 
7.814e-02 // azi =       2 ele =        78 
7.491e-02 // azi =       2 ele =        80 
7.141e-02 // azi =       2 ele =        82 
6.867e-02 // azi =       2 ele =        84 
6.673e-02 // azi =       2 ele =        86 
6.542e-02 // azi =       2 ele =        88 
6.519e-02 // azi =       2 ele =        90 
2.299e-01 // azi =       4 ele =         0 
2.273e-01 // azi =       4 ele =         2 
2.241e-01 // azi =       4 ele =         4 
2.684e-01 // azi =       4 ele =         6 
2.601e-01 // azi =       4 ele =         8 
2.504e-01 // azi =       4 ele =        10 
2.404e-01 // azi =       4 ele =        12 
2.351e-01 // azi =       4 ele =        14 
2.464e-01 // azi =       4 ele =        16 
2.774e-01 // azi =       4 ele =        18 
3.194e-01 // azi =       4 ele =        20 
3.667e-01 // azi =       4 ele =        22 
4.182e-01 // azi =       4 ele =        24 
4.736e-01 // azi =       4 ele =        26 
5.282e-01 // azi =       4 ele =        28 
6.383e-01 // azi =       4 ele =        30 
7.168e-01 // azi =       4 ele =        32 
7.119e-01 // azi =       4 ele =        34 
7.134e-01 // azi =       4 ele =        36 
7.215e-01 // azi =       4 ele =        38 
7.345e-01 // azi =       4 ele =        40 
7.503e-01 // azi =       4 ele =        42 
7.709e-01 // azi =       4 ele =        44 
7.733e-01 // azi =       4 ele =        46 
7.590e-01 // azi =       4 ele =        48 
7.414e-01 // azi =       4 ele =        50 
7.223e-01 // azi =       4 ele =        52 
7.005e-01 // azi =       4 ele =        54 
6.730e-01 // azi =       4 ele =        56 
6.285e-01 // azi =       4 ele =        58 
5.405e-01 // azi =       4 ele =        60 
5.472e-01 // azi =       4 ele =        62 
4.558e-01 // azi =       4 ele =        64 
4.080e-01 // azi =       4 ele =        66 
3.495e-01 // azi =       4 ele =        68 
2.858e-01 // azi =       4 ele =        70 
1.262e-01 // azi =       4 ele =        72 
1.039e-01 // azi =       4 ele =        74 
7.948e-02 // azi =       4 ele =        76 
7.906e-02 // azi =       4 ele =        78 
7.504e-02 // azi =       4 ele =        80 
7.130e-02 // azi =       4 ele =        82 
6.853e-02 // azi =       4 ele =        84 
6.663e-02 // azi =       4 ele =        86 
6.538e-02 // azi =       4 ele =        88 
6.519e-02 // azi =       4 ele =        90 
2.270e-01 // azi =       6 ele =         0 
2.244e-01 // azi =       6 ele =         2 
2.215e-01 // azi =       6 ele =         4 
2.183e-01 // azi =       6 ele =         6 
2.622e-01 // azi =       6 ele =         8 
2.562e-01 // azi =       6 ele =        10 
2.525e-01 // azi =       6 ele =        12 
2.542e-01 // azi =       6 ele =        14 
2.657e-01 // azi =       6 ele =        16 
2.886e-01 // azi =       6 ele =        18 
3.207e-01 // azi =       6 ele =        20 
3.587e-01 // azi =       6 ele =        22 
3.997e-01 // azi =       6 ele =        24 
4.404e-01 // azi =       6 ele =        26 
4.757e-01 // azi =       6 ele =        28 
5.908e-01 // azi =       6 ele =        30 
6.866e-01 // azi =       6 ele =        32 
6.908e-01 // azi =       6 ele =        34 
6.992e-01 // azi =       6 ele =        36 
7.114e-01 // azi =       6 ele =        38 
7.259e-01 // azi =       6 ele =        40 
7.404e-01 // azi =       6 ele =        42 
7.518e-01 // azi =       6 ele =        44 
7.644e-01 // azi =       6 ele =        46 
7.550e-01 // azi =       6 ele =        48 
7.417e-01 // azi =       6 ele =        50 
7.263e-01 // azi =       6 ele =        52 
7.093e-01 // azi =       6 ele =        54 
6.901e-01 // azi =       6 ele =        56 
6.612e-01 // azi =       6 ele =        58 
5.795e-01 // azi =       6 ele =        60 
5.750e-01 // azi =       6 ele =        62 
4.692e-01 // azi =       6 ele =        64 
4.155e-01 // azi =       6 ele =        66 
3.534e-01 // azi =       6 ele =        68 
2.879e-01 // azi =       6 ele =        70 
1.270e-01 // azi =       6 ele =        72 
8.323e-02 // azi =       6 ele =        74 
8.322e-02 // azi =       6 ele =        76 
8.003e-02 // azi =       6 ele =        78 
7.511e-02 // azi =       6 ele =        80 
7.114e-02 // azi =       6 ele =        82 
6.837e-02 // azi =       6 ele =        84 
6.653e-02 // azi =       6 ele =        86 
6.533e-02 // azi =       6 ele =        88 
6.519e-02 // azi =       6 ele =        90 
1.537e-01 // azi =       8 ele =         0 
1.528e-01 // azi =       8 ele =         2 
1.520e-01 // azi =       8 ele =         4 
1.511e-01 // azi =       8 ele =         6 
1.504e-01 // azi =       8 ele =         8 
2.570e-01 // azi =       8 ele =        10 
2.544e-01 // azi =       8 ele =        12 
2.571e-01 // azi =       8 ele =        14 
2.678e-01 // azi =       8 ele =        16 
2.879e-01 // azi =       8 ele =        18 
3.159e-01 // azi =       8 ele =        20 
3.486e-01 // azi =       8 ele =        22 
3.824e-01 // azi =       8 ele =        24 
4.134e-01 // azi =       8 ele =        26 
4.380e-01 // azi =       8 ele =        28 
6.454e-01 // azi =       8 ele =        30 
6.532e-01 // azi =       8 ele =        32 
6.665e-01 // azi =       8 ele =        34 
6.829e-01 // azi =       8 ele =        36 
7.005e-01 // azi =       8 ele =        38 
7.178e-01 // azi =       8 ele =        40 
7.329e-01 // azi =       8 ele =        42 
7.439e-01 // azi =       8 ele =        44 
7.602e-01 // azi =       8 ele =        46 
7.532e-01 // azi =       8 ele =        48 
7.428e-01 // azi =       8 ele =        50 
7.307e-01 // azi =       8 ele =        52 
7.185e-01 // azi =       8 ele =        54 
7.080e-01 // azi =       8 ele =        56 
6.874e-01 // azi =       8 ele =        58 
6.267e-01 // azi =       8 ele =        60 
6.129e-01 // azi =       8 ele =        62 
5.860e-01 // azi =       8 ele =        64 
4.232e-01 // azi =       8 ele =        66 
3.573e-01 // azi =       8 ele =        68 
2.903e-01 // azi =       8 ele =        70 
1.733e-01 // azi =       8 ele =        72 
8.779e-02 // azi =       8 ele =        74 
8.763e-02 // azi =       8 ele =        76 
8.097e-02 // azi =       8 ele =        78 
7.510e-02 // azi =       8 ele =        80 
7.094e-02 // azi =       8 ele =        82 
6.818e-02 // azi =       8 ele =        84 
6.641e-02 // azi =       8 ele =        86 
6.528e-02 // azi =       8 ele =        88 
6.519e-02 // azi =       8 ele =        90 
1.535e-01 // azi =      10 ele =         0 
1.528e-01 // azi =      10 ele =         2 
1.520e-01 // azi =      10 ele =         4 
1.513e-01 // azi =      10 ele =         6 
1.506e-01 // azi =      10 ele =         8 
1.501e-01 // azi =      10 ele =        10 
1.500e-01 // azi =      10 ele =        12 
2.455e-01 // azi =      10 ele =        14 
2.550e-01 // azi =      10 ele =        16 
2.765e-01 // azi =      10 ele =        18 
3.057e-01 // azi =      10 ele =        20 
3.375e-01 // azi =      10 ele =        22 
3.680e-01 // azi =      10 ele =        24 
3.937e-01 // azi =      10 ele =        26 
4.123e-01 // azi =      10 ele =        28 
5.085e-01 // azi =      10 ele =        30 
6.141e-01 // azi =      10 ele =        32 
6.395e-01 // azi =      10 ele =        34 
6.659e-01 // azi =      10 ele =        36 
6.900e-01 // azi =      10 ele =        38 
7.112e-01 // azi =      10 ele =        40 
7.290e-01 // azi =      10 ele =        42 
6.890e-01 // azi =      10 ele =        44 
7.472e-01 // azi =      10 ele =        46 
7.534e-01 // azi =      10 ele =        48 
7.446e-01 // azi =      10 ele =        50 
7.352e-01 // azi =      10 ele =        52 
7.275e-01 // azi =      10 ele =        54 
7.067e-01 // azi =      10 ele =        56 
7.179e-01 // azi =      10 ele =        58 
6.737e-01 // azi =      10 ele =        60 
6.457e-01 // azi =      10 ele =        62 
6.022e-01 // azi =      10 ele =        64 
4.306e-01 // azi =      10 ele =        66 
3.611e-01 // azi =      10 ele =        68 
2.929e-01 // azi =      10 ele =        70 
1.752e-01 // azi =      10 ele =        72 
9.292e-02 // azi =      10 ele =        74 
9.256e-02 // azi =      10 ele =        76 
8.176e-02 // azi =      10 ele =        78 
7.497e-02 // azi =      10 ele =        80 
7.068e-02 // azi =      10 ele =        82 
6.798e-02 // azi =      10 ele =        84 
6.629e-02 // azi =      10 ele =        86 
6.522e-02 // azi =      10 ele =        88 
6.519e-02 // azi =      10 ele =        90 
1.533e-01 // azi =      12 ele =         0 
1.525e-01 // azi =      12 ele =         2 
1.518e-01 // azi =      12 ele =         4 
1.510e-01 // azi =      12 ele =         6 
1.501e-01 // azi =      12 ele =         8 
1.489e-01 // azi =      12 ele =        10 
1.473e-01 // azi =      12 ele =        12 
1.462e-01 // azi =      12 ele =        14 
1.499e-01 // azi =      12 ele =        16 
2.567e-01 // azi =      12 ele =        18 
2.927e-01 // azi =      12 ele =        20 
3.269e-01 // azi =      12 ele =        22 
3.570e-01 // azi =      12 ele =        24 
3.810e-01 // azi =      12 ele =        26 
4.066e-01 // azi =      12 ele =        28 
4.697e-01 // azi =      12 ele =        30 
4.971e-01 // azi =      12 ele =        32 
6.120e-01 // azi =      12 ele =        34 
6.500e-01 // azi =      12 ele =        36 
6.809e-01 // azi =      12 ele =        38 
7.065e-01 // azi =      12 ele =        40 
6.713e-01 // azi =      12 ele =        42 
7.001e-01 // azi =      12 ele =        44 
7.473e-01 // azi =      12 ele =        46 
7.409e-01 // azi =      12 ele =        48 
7.467e-01 // azi =      12 ele =        50 
7.393e-01 // azi =      12 ele =        52 
7.131e-01 // azi =      12 ele =        54 
7.213e-01 // azi =      12 ele =        56 
7.451e-01 // azi =      12 ele =        58 
7.315e-01 // azi =      12 ele =        60 
6.780e-01 // azi =      12 ele =        62 
6.165e-01 // azi =      12 ele =        64 
4.369e-01 // azi =      12 ele =        66 
3.644e-01 // azi =      12 ele =        68 
2.233e-01 // azi =      12 ele =        70 
1.766e-01 // azi =      12 ele =        72 
9.822e-02 // azi =      12 ele =        74 
9.756e-02 // azi =      12 ele =        76 
8.225e-02 // azi =      12 ele =        78 
7.472e-02 // azi =      12 ele =        80 
7.038e-02 // azi =      12 ele =        82 
6.776e-02 // azi =      12 ele =        84 
6.616e-02 // azi =      12 ele =        86 
6.517e-02 // azi =      12 ele =        88 
6.519e-02 // azi =      12 ele =        90 
1.529e-01 // azi =      14 ele =         0 
1.521e-01 // azi =      14 ele =         2 
1.514e-01 // azi =      14 ele =         4 
1.505e-01 // azi =      14 ele =         6 
1.494e-01 // azi =      14 ele =         8 
1.475e-01 // azi =      14 ele =        10 
1.440e-01 // azi =      14 ele =        12 
1.370e-01 // azi =      14 ele =        14 
1.393e-01 // azi =      14 ele =        16 
1.563e-01 // azi =      14 ele =        18 
1.752e-01 // azi =      14 ele =        20 
3.189e-01 // azi =      14 ele =        22 
3.648e-01 // azi =      14 ele =        24 
3.830e-01 // azi =      14 ele =        26 
3.933e-01 // azi =      14 ele =        28 
4.271e-01 // azi =      14 ele =        30 
4.654e-01 // azi =      14 ele =        32 
5.049e-01 // azi =      14 ele =        34 
6.380e-01 // azi =      14 ele =        36 
6.010e-01 // azi =      14 ele =        38 
6.346e-01 // azi =      14 ele =        40 
6.724e-01 // azi =      14 ele =        42 
7.233e-01 // azi =      14 ele =        44 
7.537e-01 // azi =      14 ele =        46 
7.365e-01 // azi =      14 ele =        48 
7.315e-01 // azi =      14 ele =        50 
7.429e-01 // azi =      14 ele =        52 
7.198e-01 // azi =      14 ele =        54 
7.316e-01 // azi =      14 ele =        56 
7.646e-01 // azi =      14 ele =        58 
8.109e-01 // azi =      14 ele =        60 
7.022e-01 // azi =      14 ele =        62 
6.268e-01 // azi =      14 ele =        64 
5.706e-01 // azi =      14 ele =        66 
3.672e-01 // azi =      14 ele =        68 
2.246e-01 // azi =      14 ele =        70 
1.778e-01 // azi =      14 ele =        72 
1.022e-01 // azi =      14 ele =        74 
1.012e-01 // azi =      14 ele =        76 
8.231e-02 // azi =      14 ele =        78 
7.433e-02 // azi =      14 ele =        80 
7.002e-02 // azi =      14 ele =        82 
6.752e-02 // azi =      14 ele =        84 
6.603e-02 // azi =      14 ele =        86 
6.512e-02 // azi =      14 ele =        88 
6.455e-02 // azi =      14 ele =        90 
1.524e-01 // azi =      16 ele =         0 
1.516e-01 // azi =      16 ele =         2 
1.508e-01 // azi =      16 ele =         4 
1.499e-01 // azi =      16 ele =         6 
1.487e-01 // azi =      16 ele =         8 
1.469e-01 // azi =      16 ele =        10 
1.434e-01 // azi =      16 ele =        12 
1.367e-01 // azi =      16 ele =        14 
1.390e-01 // azi =      16 ele =        16 
1.558e-01 // azi =      16 ele =        18 
1.746e-01 // azi =      16 ele =        20 
2.126e-01 // azi =      16 ele =        22 
3.538e-01 // azi =      16 ele =        24 
3.720e-01 // azi =      16 ele =        26 
3.847e-01 // azi =      16 ele =        28 
4.226e-01 // azi =      16 ele =        30 
4.567e-01 // azi =      16 ele =        32 
4.938e-01 // azi =      16 ele =        34 
4.561e-01 // azi =      16 ele =        36 
5.934e-01 // azi =      16 ele =        38 
6.258e-01 // azi =      16 ele =        40 
6.640e-01 // azi =      16 ele =        42 
7.182e-01 // azi =      16 ele =        44 
7.486e-01 // azi =      16 ele =        46 
7.279e-01 // azi =      16 ele =        48 
7.227e-01 // azi =      16 ele =        50 
7.041e-01 // azi =      16 ele =        52 
7.240e-01 // azi =      16 ele =        54 
7.366e-01 // azi =      16 ele =        56 
7.691e-01 // azi =      16 ele =        58 
8.241e-01 // azi =      16 ele =        60 
7.068e-01 // azi =      16 ele =        62 
6.318e-01 // azi =      16 ele =        64 
5.745e-01 // azi =      16 ele =        66 
4.187e-01 // azi =      16 ele =        68 
2.253e-01 // azi =      16 ele =        70 
1.791e-01 // azi =      16 ele =        72 
1.023e-01 // azi =      16 ele =        74 
1.013e-01 // azi =      16 ele =        76 
8.184e-02 // azi =      16 ele =        78 
7.377e-02 // azi =      16 ele =        80 
6.960e-02 // azi =      16 ele =        82 
6.726e-02 // azi =      16 ele =        84 
6.589e-02 // azi =      16 ele =        86 
6.506e-02 // azi =      16 ele =        88 
6.455e-02 // azi =      16 ele =        90 
1.518e-01 // azi =      18 ele =         0 
1.509e-01 // azi =      18 ele =         2 
1.500e-01 // azi =      18 ele =         4 
1.490e-01 // azi =      18 ele =         6 
1.480e-01 // azi =      18 ele =         8 
1.468e-01 // azi =      18 ele =        10 
1.454e-01 // azi =      18 ele =        12 
1.445e-01 // azi =      18 ele =        14 
1.482e-01 // azi =      18 ele =        16 
1.719e-01 // azi =      18 ele =        18 
1.892e-01 // azi =      18 ele =        20 
2.091e-01 // azi =      18 ele =        22 
2.318e-01 // azi =      18 ele =        24 
2.581e-01 // azi =      18 ele =        26 
3.724e-01 // azi =      18 ele =        28 
3.754e-01 // azi =      18 ele =        30 
4.628e-01 // azi =      18 ele =        32 
4.267e-01 // azi =      18 ele =        34 
4.490e-01 // azi =      18 ele =        36 
4.781e-01 // azi =      18 ele =        38 
5.154e-01 // azi =      18 ele =        40 
6.432e-01 // azi =      18 ele =        42 
6.753e-01 // azi =      18 ele =        44 
7.225e-01 // azi =      18 ele =        46 
7.124e-01 // azi =      18 ele =        48 
6.889e-01 // azi =      18 ele =        50 
6.965e-01 // azi =      18 ele =        52 
7.259e-01 // azi =      18 ele =        54 
7.368e-01 // azi =      18 ele =        56 
7.607e-01 // azi =      18 ele =        58 
7.695e-01 // azi =      18 ele =        60 
6.938e-01 // azi =      18 ele =        62 
6.318e-01 // azi =      18 ele =        64 
5.768e-01 // azi =      18 ele =        66 
4.246e-01 // azi =      18 ele =        68 
2.254e-01 // azi =      18 ele =        70 
8.382e-02 // azi =      18 ele =        72 
9.847e-02 // azi =      18 ele =        74 
9.776e-02 // azi =      18 ele =        76 
8.081e-02 // azi =      18 ele =        78 
7.306e-02 // azi =      18 ele =        80 
6.913e-02 // azi =      18 ele =        82 
6.698e-02 // azi =      18 ele =        84 
6.574e-02 // azi =      18 ele =        86 
6.500e-02 // azi =      18 ele =        88 
6.455e-02 // azi =      18 ele =        90 
8.897e-02 // azi =      20 ele =         0 
8.980e-02 // azi =      20 ele =         2 
1.489e-01 // azi =      20 ele =         4 
1.478e-01 // azi =      20 ele =         6 
1.469e-01 // azi =      20 ele =         8 
1.461e-01 // azi =      20 ele =        10 
1.460e-01 // azi =      20 ele =        12 
1.602e-01 // azi =      20 ele =        14 
1.648e-01 // azi =      20 ele =        16 
1.743e-01 // azi =      20 ele =        18 
1.879e-01 // azi =      20 ele =        20 
2.044e-01 // azi =      20 ele =        22 
2.229e-01 // azi =      20 ele =        24 
2.424e-01 // azi =      20 ele =        26 
2.606e-01 // azi =      20 ele =        28 
3.628e-01 // azi =      20 ele =        30 
4.054e-01 // azi =      20 ele =        32 
4.194e-01 // azi =      20 ele =        34 
4.395e-01 // azi =      20 ele =        36 
4.651e-01 // azi =      20 ele =        38 
4.954e-01 // azi =      20 ele =        40 
5.293e-01 // azi =      20 ele =        42 
6.332e-01 // azi =      20 ele =        44 
6.914e-01 // azi =      20 ele =        46 
6.716e-01 // azi =      20 ele =        48 
6.753e-01 // azi =      20 ele =        50 
6.870e-01 // azi =      20 ele =        52 
7.045e-01 // azi =      20 ele =        54 
7.339e-01 // azi =      20 ele =        56 
7.217e-01 // azi =      20 ele =        58 
7.359e-01 // azi =      20 ele =        60 
7.203e-01 // azi =      20 ele =        62 
6.287e-01 // azi =      20 ele =        64 
5.778e-01 // azi =      20 ele =        66 
4.299e-01 // azi =      20 ele =        68 
2.250e-01 // azi =      20 ele =        70 
8.191e-02 // azi =      20 ele =        72 
9.309e-02 // azi =      20 ele =        74 
9.264e-02 // azi =      20 ele =        76 
7.926e-02 // azi =      20 ele =        78 
7.219e-02 // azi =      20 ele =        80 
6.861e-02 // azi =      20 ele =        82 
6.669e-02 // azi =      20 ele =        84 
6.559e-02 // azi =      20 ele =        86 
6.494e-02 // azi =      20 ele =        88 
6.455e-02 // azi =      20 ele =        90 
8.739e-02 // azi =      22 ele =         0 
8.797e-02 // azi =      22 ele =         2 
8.864e-02 // azi =      22 ele =         4 
8.941e-02 // azi =      22 ele =         6 
1.448e-01 // azi =      22 ele =         8 
1.585e-01 // azi =      22 ele =        10 
1.577e-01 // azi =      22 ele =        12 
1.590e-01 // azi =      22 ele =        14 
1.636e-01 // azi =      22 ele =        16 
1.721e-01 // azi =      22 ele =        18 
1.840e-01 // azi =      22 ele =        20 
1.983e-01 // azi =      22 ele =        22 
2.136e-01 // azi =      22 ele =        24 
2.283e-01 // azi =      22 ele =        26 
2.405e-01 // azi =      22 ele =        28 
3.840e-01 // azi =      22 ele =        30 
3.929e-01 // azi =      22 ele =        32 
4.077e-01 // azi =      22 ele =        34 
4.274e-01 // azi =      22 ele =        36 
4.503e-01 // azi =      22 ele =        38 
4.742e-01 // azi =      22 ele =        40 
4.968e-01 // azi =      22 ele =        42 
5.140e-01 // azi =      22 ele =        44 
6.387e-01 // azi =      22 ele =        46 
6.464e-01 // azi =      22 ele =        48 
6.592e-01 // azi =      22 ele =        50 
6.762e-01 // azi =      22 ele =        52 
6.956e-01 // azi =      22 ele =        54 
7.157e-01 // azi =      22 ele =        56 
7.070e-01 // azi =      22 ele =        58 
7.139e-01 // azi =      22 ele =        60 
7.063e-01 // azi =      22 ele =        62 
6.248e-01 // azi =      22 ele =        64 
5.068e-01 // azi =      22 ele =        66 
4.346e-01 // azi =      22 ele =        68 
2.237e-01 // azi =      22 ele =        70 
7.946e-02 // azi =      22 ele =        72 
8.755e-02 // azi =      22 ele =        74 
8.727e-02 // azi =      22 ele =        76 
7.727e-02 // azi =      22 ele =        78 
7.117e-02 // azi =      22 ele =        80 
6.805e-02 // azi =      22 ele =        82 
6.638e-02 // azi =      22 ele =        84 
6.543e-02 // azi =      22 ele =        86 
6.488e-02 // azi =      22 ele =        88 
6.455e-02 // azi =      22 ele =        90 
8.571e-02 // azi =      24 ele =         0 
8.602e-02 // azi =      24 ele =         2 
8.636e-02 // azi =      24 ele =         4 
1.023e-01 // azi =      24 ele =         6 
1.021e-01 // azi =      24 ele =         8 
1.020e-01 // azi =      24 ele =        10 
1.517e-01 // azi =      24 ele =        12 
1.517e-01 // azi =      24 ele =        14 
1.560e-01 // azi =      24 ele =        16 
1.652e-01 // azi =      24 ele =        18 
1.776e-01 // azi =      24 ele =        20 
1.915e-01 // azi =      24 ele =        22 
2.052e-01 // azi =      24 ele =        24 
2.170e-01 // azi =      24 ele =        26 
2.259e-01 // azi =      24 ele =        28 
2.662e-01 // azi =      24 ele =        30 
3.734e-01 // azi =      24 ele =        32 
3.918e-01 // azi =      24 ele =        34 
4.135e-01 // azi =      24 ele =        36 
4.353e-01 // azi =      24 ele =        38 
4.545e-01 // azi =      24 ele =        40 
4.686e-01 // azi =      24 ele =        42 
5.165e-01 // azi =      24 ele =        44 
5.790e-01 // azi =      24 ele =        46 
6.180e-01 // azi =      24 ele =        48 
6.416e-01 // azi =      24 ele =        50 
6.649e-01 // azi =      24 ele =        52 
6.868e-01 // azi =      24 ele =        54 
6.687e-01 // azi =      24 ele =        56 
6.957e-01 // azi =      24 ele =        58 
6.993e-01 // azi =      24 ele =        60 
6.953e-01 // azi =      24 ele =        62 
6.303e-01 // azi =      24 ele =        64 
5.887e-01 // azi =      24 ele =        66 
4.238e-01 // azi =      24 ele =        68 
1.939e-01 // azi =      24 ele =        70 
7.664e-02 // azi =      24 ele =        72 
8.225e-02 // azi =      24 ele =        74 
8.208e-02 // azi =      24 ele =        76 
7.495e-02 // azi =      24 ele =        78 
7.002e-02 // azi =      24 ele =        80 
6.744e-02 // azi =      24 ele =        82 
6.605e-02 // azi =      24 ele =        84 
6.528e-02 // azi =      24 ele =        86 
6.482e-02 // azi =      24 ele =        88 
6.455e-02 // azi =      24 ele =        90 
8.398e-02 // azi =      26 ele =         0 
1.006e-01 // azi =      26 ele =         2 
1.003e-01 // azi =      26 ele =         4 
9.981e-02 // azi =      26 ele =         6 
9.912e-02 // azi =      26 ele =         8 
9.808e-02 // azi =      26 ele =        10 
9.676e-02 // azi =      26 ele =        12 
9.598e-02 // azi =      26 ele =        14 
1.418e-01 // azi =      26 ele =        16 
1.540e-01 // azi =      26 ele =        18 
1.695e-01 // azi =      26 ele =        20 
1.848e-01 // azi =      26 ele =        22 
1.983e-01 // azi =      26 ele =        24 
2.090e-01 // azi =      26 ele =        26 
2.161e-01 // azi =      26 ele =        28 
2.498e-01 // azi =      26 ele =        30 
3.465e-01 // azi =      26 ele =        32 
3.729e-01 // azi =      26 ele =        34 
3.992e-01 // azi =      26 ele =        36 
4.214e-01 // azi =      26 ele =        38 
4.376e-01 // azi =      26 ele =        40 
4.882e-01 // azi =      26 ele =        42 
4.820e-01 // azi =      26 ele =        44 
5.373e-01 // azi =      26 ele =        46 
5.649e-01 // azi =      26 ele =        48 
6.242e-01 // azi =      26 ele =        50 
6.542e-01 // azi =      26 ele =        52 
6.786e-01 // azi =      26 ele =        54 
6.597e-01 // azi =      26 ele =        56 
6.778e-01 // azi =      26 ele =        58 
6.908e-01 // azi =      26 ele =        60 
6.875e-01 // azi =      26 ele =        62 
6.250e-01 // azi =      26 ele =        64 
5.865e-01 // azi =      26 ele =        66 
4.198e-01 // azi =      26 ele =        68 
1.957e-01 // azi =      26 ele =        70 
7.359e-02 // azi =      26 ele =        72 
7.723e-02 // azi =      26 ele =        74 
7.712e-02 // azi =      26 ele =        76 
7.241e-02 // azi =      26 ele =        78 
6.878e-02 // azi =      26 ele =        80 
6.679e-02 // azi =      26 ele =        82 
6.572e-02 // azi =      26 ele =        84 
6.511e-02 // azi =      26 ele =        86 
6.476e-02 // azi =      26 ele =        88 
6.455e-02 // azi =      26 ele =        90 
9.934e-02 // azi =      28 ele =         0 
9.888e-02 // azi =      28 ele =         2 
9.830e-02 // azi =      28 ele =         4 
9.752e-02 // azi =      28 ele =         6 
9.636e-02 // azi =      28 ele =         8 
9.453e-02 // azi =      28 ele =        10 
9.156e-02 // azi =      28 ele =        12 
8.777e-02 // azi =      28 ele =        14 
8.924e-02 // azi =      28 ele =        16 
9.760e-02 // azi =      28 ele =        18 
1.616e-01 // azi =      28 ele =        20 
1.791e-01 // azi =      28 ele =        22 
1.932e-01 // azi =      28 ele =        24 
2.650e-01 // azi =      28 ele =        26 
2.579e-01 // azi =      28 ele =        28 
2.740e-01 // azi =      28 ele =        30 
2.962e-01 // azi =      28 ele =        32 
3.548e-01 // azi =      28 ele =        34 
3.867e-01 // azi =      28 ele =        36 
4.100e-01 // azi =      28 ele =        38 
4.743e-01 // azi =      28 ele =        40 
4.700e-01 // azi =      28 ele =        42 
4.471e-01 // azi =      28 ele =        44 
4.878e-01 // azi =      28 ele =        46 
5.423e-01 // azi =      28 ele =        48 
6.094e-01 // azi =      28 ele =        50 
6.450e-01 // azi =      28 ele =        52 
6.283e-01 // azi =      28 ele =        54 
6.522e-01 // azi =      28 ele =        56 
6.720e-01 // azi =      28 ele =        58 
6.887e-01 // azi =      28 ele =        60 
6.822e-01 // azi =      28 ele =        62 
6.203e-01 // azi =      28 ele =        64 